/*---------------------------------------------------------------------------*\
| =========                 |                                                 |
| \\      /  F ield         | foam-extend: Open Source CFD                    |
|  \\    /   O peration     | Version:     5.0                                |
|   \\  /    A nd           | Web:         http://www.foam-extend.org         |
|    \\/     M anipulation  | For copyright notice see file Copyright         |
\*---------------------------------------------------------------------------*/
Build  : 5.0-73c2a3d539c2
Exec   : lmbFoam
Date   : Jul 05 2023
Time   : 16:27:17
Host   : "ojm40-OMEN"
PID    : 410595
CtrlDict : "/home/ojm40/foam/ojm40-5.0/work/liquidMetalBattery/run/hartmann/system/controlDict"
Case   : /home/ojm40/foam/ojm40-5.0/work/liquidMetalBattery/run/hartmann
nProcs : 1
sigFpe : Enabling floating point exception trapping (FOAM_SIGFPE).
allowSystemOperations : Disallowing user-supplied system call operations

// * * * * * * * * * * * * * * * * * * * * * * * * * * * * * * * * * * * * * //
Create time

Create dynamic mesh for time = 0

Selecting dynamicFvMesh staticFvMesh

PIMPLE: no residual control data found. Calculations will employ 2 corrector loops


Reading g
Reading field pd

Reading field alpha1

Reading field U

Reading/calculating face flux field phi

Reading transportProperties

Selecting incompressible transport model Newtonian
Selecting incompressible transport model Newtonian
Calculating field g.h

Reading field p

Selecting turbulence model type RASModel
Selecting RAS turbulence model kEpsilon
kEpsilonCoeffs
{
    Cmu             0.09;
    C1              1.44;
    C2              1.92;
    sigmaEps        1.3;
}

Number of internal interface faces: 0
Smoothing alpha field 1 times for curvature calculation.
amgSolver:  Solving for pd, Initial residual = 1, Final residual = 1.87629e-05, No Iterations 20
Reading field Voltage

Courant Number mean: 0.0050614 max: 0.05 velocity magnitude: 1

Starting time loop

Volume: new = 4 old = 4 change = 0 ratio = 0
Courant Number mean: 0.0050614 max: 0.05 velocity magnitude: 1
Interface Courant Number mean: 0 max: 0
deltaT = 0.006
Time = 0.006

PIMPLE: iteration 1
Mesh Courant Number mean: 0 max: 0
amgSolver:  Solving for Voltage, Initial residual = 0, Final residual = 0, No Iterations 1
BiCGStab:  Solving for Ux, Initial residual = 1, Final residual = 1.54852e-10, No Iterations 4
BiCGStab:  Solving for Uy, Initial residual = 1, Final residual = 2.02676e-10, No Iterations 4
amgSolver:  Solving for pd, Initial residual = 0.00668265, Final residual = 4.568e-08, No Iterations 20
Updating old interface data for additonal non orthogonal/PISO correctors.
time step continuity errors : sum local = 5.47045e-10, global = 2.69461e-13, cumulative = 2.69461e-13
amgSolver:  Solving for pd, Initial residual = 0.0101304, Final residual = 8.73192e-08, No Iterations 20
time step continuity errors : sum local = 4.53398e-10, global = -2.25362e-13, cumulative = 4.40983e-14
PIMPLE: iteration 2
Mesh Courant Number mean: 0 max: 0
amgSolver:  Solving for Voltage, Initial residual = 0, Final residual = 0, No Iterations 1
BiCGStab:  Solving for Ux, Initial residual = 0.833127, Final residual = 1.49116e-10, No Iterations 4
BiCGStab:  Solving for Uy, Initial residual = 0.118306, Final residual = 2.28182e-10, No Iterations 4
amgSolver:  Solving for pd, Initial residual = 0.062146, Final residual = 1.01863e-06, No Iterations 20
Updating old interface data for additonal non orthogonal/PISO correctors.
time step continuity errors : sum local = 1.16168e-08, global = -5.44601e-12, cumulative = -5.40192e-12
amgSolver:  Solving for pd, Initial residual = 0.00380423, Final residual = 6.17294e-08, No Iterations 20
time step continuity errors : sum local = 9.46036e-09, global = 4.45413e-12, cumulative = -9.47785e-13
Writing data at time 0.006
ExecutionTime = 0.07 s  ClockTime = 0 s

Volume: new = 4 old = 4 change = 0 ratio = 0
Courant Number mean: 0.00632156 max: 0.100425 velocity magnitude: 1.68213
Interface Courant Number mean: 0 max: 0
deltaT = 0.00719492
Time = 0.0131949

PIMPLE: iteration 1
Mesh Courant Number mean: 0 max: 0
amgSolver:  Solving for Voltage, Initial residual = 0, Final residual = 0, No Iterations 1
BiCGStab:  Solving for Ux, Initial residual = 0.839589, Final residual = 8.23389e-10, No Iterations 4
BiCGStab:  Solving for Uy, Initial residual = 0.67433, Final residual = 4.71333e-09, No Iterations 4
amgSolver:  Solving for pd, Initial residual = 0.0212388, Final residual = 1.83928e-07, No Iterations 20
Updating old interface data for additonal non orthogonal/PISO correctors.
time step continuity errors : sum local = 8.45071e-09, global = 3.88774e-12, cumulative = 2.93996e-12
amgSolver:  Solving for pd, Initial residual = 0.0122012, Final residual = 1.19299e-07, No Iterations 20
time step continuity errors : sum local = 7.03822e-09, global = -3.26767e-12, cumulative = -3.27711e-13
PIMPLE: iteration 2
Mesh Courant Number mean: 0 max: 0
amgSolver:  Solving for Voltage, Initial residual = 0, Final residual = 0, No Iterations 1
BiCGStab:  Solving for Ux, Initial residual = 0.86778, Final residual = 1.39821e-09, No Iterations 4
BiCGStab:  Solving for Uy, Initial residual = 0.307397, Final residual = 2.12682e-09, No Iterations 4
amgSolver:  Solving for pd, Initial residual = 0.0442761, Final residual = 8.2285e-08, No Iterations 20
Updating old interface data for additonal non orthogonal/PISO correctors.
time step continuity errors : sum local = 2.45296e-09, global = -1.10608e-12, cumulative = -1.43379e-12
amgSolver:  Solving for pd, Initial residual = 0.0126161, Final residual = 3.37176e-08, No Iterations 20
time step continuity errors : sum local = 1.98528e-09, global = 9.32938e-13, cumulative = -5.00857e-13
Writing data at time 0.0131949
ExecutionTime = 0.11 s  ClockTime = 0 s

Volume: new = 4 old = 4 change = 0 ratio = 0
Courant Number mean: 0.0088431 max: 0.228717 velocity magnitude: 3.18751
Interface Courant Number mean: 0 max: 0
deltaT = 0.00629156
Time = 0.0194865

PIMPLE: iteration 1
Mesh Courant Number mean: 0 max: 0
amgSolver:  Solving for Voltage, Initial residual = 0, Final residual = 0, No Iterations 1
BiCGStab:  Solving for Ux, Initial residual = 0.9316, Final residual = 3.91053e-10, No Iterations 4
BiCGStab:  Solving for Uy, Initial residual = 0.233125, Final residual = 6.11846e-10, No Iterations 4
amgSolver:  Solving for pd, Initial residual = 0.054121, Final residual = 5.75756e-08, No Iterations 20
Updating old interface data for additonal non orthogonal/PISO correctors.
time step continuity errors : sum local = 1.72412e-09, global = 8.67005e-13, cumulative = 3.66148e-13
amgSolver:  Solving for pd, Initial residual = 0.152116, Final residual = 2.16579e-07, No Iterations 20
time step continuity errors : sum local = 1.34811e-09, global = -7.24332e-13, cumulative = -3.58184e-13
PIMPLE: iteration 2
Mesh Courant Number mean: 0 max: 0
amgSolver:  Solving for Voltage, Initial residual = 0, Final residual = 0, No Iterations 1
BiCGStab:  Solving for Ux, Initial residual = 0.968294, Final residual = 6.94243e-10, No Iterations 4
BiCGStab:  Solving for Uy, Initial residual = 0.0665003, Final residual = 2.17936e-10, No Iterations 4
amgSolver:  Solving for pd, Initial residual = 0.08659, Final residual = 1.00009e-07, No Iterations 20
Updating old interface data for additonal non orthogonal/PISO correctors.
time step continuity errors : sum local = 2.63136e-09, global = -1.4614e-12, cumulative = -1.81959e-12
amgSolver:  Solving for pd, Initial residual = 0.0221402, Final residual = 3.35567e-08, No Iterations 20
time step continuity errors : sum local = 2.08743e-09, global = 1.23437e-12, cumulative = -5.85216e-13
Writing data at time 0.0194865
ExecutionTime = 0.16 s  ClockTime = 0 s

Volume: new = 4 old = 4 change = 0 ratio = 0
Courant Number mean: 0.023796 max: 0.425034 velocity magnitude: 6.94563
Interface Courant Number mean: 0 max: 0
deltaT = 0.00296049
Time = 0.022447

PIMPLE: iteration 1
Mesh Courant Number mean: 0 max: 0
amgSolver:  Solving for Voltage, Initial residual = 0, Final residual = 0, No Iterations 1
BiCGStab:  Solving for Ux, Initial residual = 0.992919, Final residual = 5.74264e-10, No Iterations 3
BiCGStab:  Solving for Uy, Initial residual = 0.142114, Final residual = 3.29597e-10, No Iterations 3
amgSolver:  Solving for pd, Initial residual = 0.0739449, Final residual = 3.9039e-08, No Iterations 20
Updating old interface data for additonal non orthogonal/PISO correctors.
time step continuity errors : sum local = 5.07451e-10, global = 3.14466e-13, cumulative = -2.7075e-13
amgSolver:  Solving for pd, Initial residual = 0.089078, Final residual = 6.0989e-08, No Iterations 20
time step continuity errors : sum local = 3.81103e-10, global = -2.2362e-13, cumulative = -4.9437e-13
PIMPLE: iteration 2
Mesh Courant Number mean: 0 max: 0
amgSolver:  Solving for Voltage, Initial residual = 0, Final residual = 0, No Iterations 1
BiCGStab:  Solving for Ux, Initial residual = 0.991298, Final residual = 2.86439e-10, No Iterations 3
BiCGStab:  Solving for Uy, Initial residual = 0.0967371, Final residual = 2.19729e-10, No Iterations 3
amgSolver:  Solving for pd, Initial residual = 0.0751464, Final residual = 4.40105e-08, No Iterations 20
Updating old interface data for additonal non orthogonal/PISO correctors.
time step continuity errors : sum local = 4.8362e-10, global = -3.09184e-13, cumulative = -8.03554e-13
amgSolver:  Solving for pd, Initial residual = 0.0275475, Final residual = 2.09683e-08, No Iterations 20
time step continuity errors : sum local = 3.60519e-10, global = 2.19752e-13, cumulative = -5.83803e-13
Writing data at time 0.022447
ExecutionTime = 0.19 s  ClockTime = 0 s

Volume: new = 4 old = 4 change = 0 ratio = 0
Courant Number mean: 0.012343 max: 0.208864 velocity magnitude: 7.23009
Interface Courant Number mean: 0 max: 0
deltaT = 0.00283485
Time = 0.0252818

PIMPLE: iteration 1
Mesh Courant Number mean: 0 max: 0
amgSolver:  Solving for Voltage, Initial residual = 0, Final residual = 0, No Iterations 1
BiCGStab:  Solving for Ux, Initial residual = 0.993996, Final residual = 3.46773e-10, No Iterations 3
BiCGStab:  Solving for Uy, Initial residual = 0.0601609, Final residual = 1.85404e-10, No Iterations 3
amgSolver:  Solving for pd, Initial residual = 0.0652192, Final residual = 3.84773e-08, No Iterations 20
Updating old interface data for additonal non orthogonal/PISO correctors.
time step continuity errors : sum local = 4.62892e-10, global = 2.77709e-13, cumulative = -3.06093e-13
amgSolver:  Solving for pd, Initial residual = 0.0699564, Final residual = 5.16534e-08, No Iterations 20
time step continuity errors : sum local = 3.41965e-10, global = -1.95284e-13, cumulative = -5.01377e-13
PIMPLE: iteration 2
Mesh Courant Number mean: 0 max: 0
amgSolver:  Solving for Voltage, Initial residual = 0, Final residual = 0, No Iterations 1
BiCGStab:  Solving for Ux, Initial residual = 0.988336, Final residual = 1.75234e-10, No Iterations 3
BiCGStab:  Solving for Uy, Initial residual = 0.100718, Final residual = 1.66452e-10, No Iterations 3
amgSolver:  Solving for pd, Initial residual = 0.0697466, Final residual = 4.475e-08, No Iterations 20
Updating old interface data for additonal non orthogonal/PISO correctors.
time step continuity errors : sum local = 4.67027e-10, global = -2.81841e-13, cumulative = -7.83218e-13
amgSolver:  Solving for pd, Initial residual = 0.0289055, Final residual = 2.18521e-08, No Iterations 20
time step continuity errors : sum local = 3.39545e-10, global = 1.96923e-13, cumulative = -5.86295e-13
Writing data at time 0.0252818
ExecutionTime = 0.23 s  ClockTime = 0 s

Volume: new = 4 old = 4 change = 0 ratio = 0
Courant Number mean: 0.0124688 max: 0.201102 velocity magnitude: 7.27049
Interface Courant Number mean: 0 max: 0
deltaT = 0.00281931
Time = 0.0281011

PIMPLE: iteration 1
Mesh Courant Number mean: 0 max: 0
amgSolver:  Solving for Voltage, Initial residual = 0, Final residual = 0, No Iterations 1
BiCGStab:  Solving for Ux, Initial residual = 0.991938, Final residual = 3.07922e-10, No Iterations 3
BiCGStab:  Solving for Uy, Initial residual = 0.047889, Final residual = 1.64912e-10, No Iterations 3
amgSolver:  Solving for pd, Initial residual = 0.0621638, Final residual = 4.06698e-08, No Iterations 20
Updating old interface data for additonal non orthogonal/PISO correctors.
time step continuity errors : sum local = 4.80648e-10, global = 2.79061e-13, cumulative = -3.07234e-13
amgSolver:  Solving for pd, Initial residual = 0.0679052, Final residual = 5.07346e-08, No Iterations 20
time step continuity errors : sum local = 3.49001e-10, global = -1.95225e-13, cumulative = -5.02458e-13
PIMPLE: iteration 2
Mesh Courant Number mean: 0 max: 0
amgSolver:  Solving for Voltage, Initial residual = 0, Final residual = 0, No Iterations 1
BiCGStab:  Solving for Ux, Initial residual = 0.985672, Final residual = 1.5014e-10, No Iterations 3
BiCGStab:  Solving for Uy, Initial residual = 0.101221, Final residual = 1.55995e-10, No Iterations 3
amgSolver:  Solving for pd, Initial residual = 0.0686538, Final residual = 4.73147e-08, No Iterations 20
Updating old interface data for additonal non orthogonal/PISO correctors.
time step continuity errors : sum local = 4.91443e-10, global = -2.8731e-13, cumulative = -7.89768e-13
amgSolver:  Solving for pd, Initial residual = 0.0308475, Final residual = 2.32478e-08, No Iterations 20
time step continuity errors : sum local = 3.52086e-10, global = 1.99658e-13, cumulative = -5.90109e-13
Writing data at time 0.0281011
ExecutionTime = 0.28 s  ClockTime = 0 s

Volume: new = 4 old = 4 change = 0 ratio = 0
Courant Number mean: 0.0130839 max: 0.201909 velocity magnitude: 7.35345
Interface Courant Number mean: 0 max: 0
deltaT = 0.00279266
Time = 0.0308938

PIMPLE: iteration 1
Mesh Courant Number mean: 0 max: 0
amgSolver:  Solving for Voltage, Initial residual = 0, Final residual = 0, No Iterations 1
BiCGStab:  Solving for Ux, Initial residual = 0.987461, Final residual = 2.49338e-10, No Iterations 3
BiCGStab:  Solving for Uy, Initial residual = 0.0439896, Final residual = 1.6546e-10, No Iterations 3
amgSolver:  Solving for pd, Initial residual = 0.0627749, Final residual = 4.32007e-08, No Iterations 20
Updating old interface data for additonal non orthogonal/PISO correctors.
time step continuity errors : sum local = 5.01603e-10, global = 2.83619e-13, cumulative = -3.0649e-13
amgSolver:  Solving for pd, Initial residual = 0.0684554, Final residual = 5.09322e-08, No Iterations 20
time step continuity errors : sum local = 3.59075e-10, global = -1.97309e-13, cumulative = -5.03799e-13
PIMPLE: iteration 2
Mesh Courant Number mean: 0 max: 0
amgSolver:  Solving for Voltage, Initial residual = 0, Final residual = 0, No Iterations 1
BiCGStab:  Solving for Ux, Initial residual = 0.98505, Final residual = 1.25617e-10, No Iterations 3
BiCGStab:  Solving for Uy, Initial residual = 0.10853, Final residual = 1.47502e-10, No Iterations 3
amgSolver:  Solving for pd, Initial residual = 0.0705476, Final residual = 4.94014e-08, No Iterations 20
Updating old interface data for additonal non orthogonal/PISO correctors.
time step continuity errors : sum local = 5.08555e-10, global = -2.91962e-13, cumulative = -7.95761e-13
amgSolver:  Solving for pd, Initial residual = 0.0326585, Final residual = 2.44468e-08, No Iterations 20
time step continuity errors : sum local = 3.60109e-10, global = 2.01939e-13, cumulative = -5.93822e-13
Writing data at time 0.0308938
ExecutionTime = 0.32 s  ClockTime = 0 s

Volume: new = 4 old = 4 change = 0 ratio = 0
Courant Number mean: 0.0135926 max: 0.203277 velocity magnitude: 7.50594
Interface Courant Number mean: 0 max: 0
deltaT = 0.00274764
Time = 0.0336414

PIMPLE: iteration 1
Mesh Courant Number mean: 0 max: 0
amgSolver:  Solving for Voltage, Initial residual = 0, Final residual = 0, No Iterations 1
BiCGStab:  Solving for Ux, Initial residual = 0.986614, Final residual = 2.35007e-10, No Iterations 3
BiCGStab:  Solving for Uy, Initial residual = 0.0397071, Final residual = 1.52512e-10, No Iterations 3
amgSolver:  Solving for pd, Initial residual = 0.0647195, Final residual = 4.5073e-08, No Iterations 20
Updating old interface data for additonal non orthogonal/PISO correctors.
time step continuity errors : sum local = 5.1039e-10, global = 2.8484e-13, cumulative = -3.08982e-13
amgSolver:  Solving for pd, Initial residual = 0.0680975, Final residual = 5.04887e-08, No Iterations 20
time step continuity errors : sum local = 3.61004e-10, global = -1.96921e-13, cumulative = -5.05903e-13
PIMPLE: iteration 2
Mesh Courant Number mean: 0 max: 0
amgSolver:  Solving for Voltage, Initial residual = 0, Final residual = 0, No Iterations 1
BiCGStab:  Solving for Ux, Initial residual = 0.984075, Final residual = 1.01018e-10, No Iterations 3
BiCGStab:  Solving for Uy, Initial residual = 0.121885, Final residual = 1.52493e-10, No Iterations 3
amgSolver:  Solving for pd, Initial residual = 0.0718923, Final residual = 5.04636e-08, No Iterations 20
Updating old interface data for additonal non orthogonal/PISO correctors.
time step continuity errors : sum local = 5.10828e-10, global = -2.90327e-13, cumulative = -7.9623e-13
amgSolver:  Solving for pd, Initial residual = 0.0340246, Final residual = 2.52485e-08, No Iterations 20
time step continuity errors : sum local = 3.57902e-10, global = 1.99549e-13, cumulative = -5.96681e-13
Writing data at time 0.0336414
ExecutionTime = 0.36 s  ClockTime = 0 s

Volume: new = 4 old = 4 change = 0 ratio = 0
Courant Number mean: 0.0138099 max: 0.200653 velocity magnitude: 7.56598
Interface Courant Number mean: 0 max: 0
deltaT = 0.0027387
Time = 0.0363801

PIMPLE: iteration 1
Mesh Courant Number mean: 0 max: 0
amgSolver:  Solving for Voltage, Initial residual = 0, Final residual = 0, No Iterations 1
BiCGStab:  Solving for Ux, Initial residual = 0.985617, Final residual = 5.5444e-10, No Iterations 3
BiCGStab:  Solving for Uy, Initial residual = 0.0344077, Final residual = 1.46321e-10, No Iterations 3
amgSolver:  Solving for pd, Initial residual = 0.0662893, Final residual = 4.64502e-08, No Iterations 20
Updating old interface data for additonal non orthogonal/PISO correctors.
time step continuity errors : sum local = 5.21769e-10, global = 2.91978e-13, cumulative = -3.04703e-13
amgSolver:  Solving for pd, Initial residual = 0.0683244, Final residual = 5.04606e-08, No Iterations 20
time step continuity errors : sum local = 3.66996e-10, global = -2.01483e-13, cumulative = -5.06187e-13
PIMPLE: iteration 2
Mesh Courant Number mean: 0 max: 0
amgSolver:  Solving for Voltage, Initial residual = 0, Final residual = 0, No Iterations 1
BiCGStab:  Solving for Ux, Initial residual = 0.983302, Final residual = 9.21825e-11, No Iterations 3
BiCGStab:  Solving for Uy, Initial residual = 0.126388, Final residual = 1.64552e-10, No Iterations 3
amgSolver:  Solving for pd, Initial residual = 0.0738937, Final residual = 5.19682e-08, No Iterations 20
Updating old interface data for additonal non orthogonal/PISO correctors.
time step continuity errors : sum local = 5.25494e-10, global = -2.98983e-13, cumulative = -8.05169e-13
amgSolver:  Solving for pd, Initial residual = 0.0355242, Final residual = 2.6192e-08, No Iterations 20
time step continuity errors : sum local = 3.66394e-10, global = 2.05133e-13, cumulative = -6.00037e-13
Writing data at time 0.0363801
ExecutionTime = 0.4 s  ClockTime = 0 s

Volume: new = 4 old = 4 change = 0 ratio = 0
Courant Number mean: 0.0141829 max: 0.200437 velocity magnitude: 7.62041
Interface Courant Number mean: 0 max: 0
deltaT = 0.00273272
Time = 0.0391128

PIMPLE: iteration 1
Mesh Courant Number mean: 0 max: 0
amgSolver:  Solving for Voltage, Initial residual = 0, Final residual = 0, No Iterations 1
BiCGStab:  Solving for Ux, Initial residual = 0.985043, Final residual = 5.37804e-09, No Iterations 3
BiCGStab:  Solving for Uy, Initial residual = 0.0328448, Final residual = 1.47132e-10, No Iterations 3
amgSolver:  Solving for pd, Initial residual = 0.0685692, Final residual = 4.81007e-08, No Iterations 20
Updating old interface data for additonal non orthogonal/PISO correctors.
time step continuity errors : sum local = 5.37718e-10, global = 3.02122e-13, cumulative = -2.97915e-13
amgSolver:  Solving for pd, Initial residual = 0.069469, Final residual = 5.10714e-08, No Iterations 20
time step continuity errors : sum local = 3.76765e-10, global = -2.08285e-13, cumulative = -5.062e-13
PIMPLE: iteration 2
Mesh Courant Number mean: 0 max: 0
amgSolver:  Solving for Voltage, Initial residual = 0, Final residual = 0, No Iterations 1
BiCGStab:  Solving for Ux, Initial residual = 0.98282, Final residual = 8.56255e-11, No Iterations 3
BiCGStab:  Solving for Uy, Initial residual = 0.13043, Final residual = 1.75462e-10, No Iterations 3
amgSolver:  Solving for pd, Initial residual = 0.0761191, Final residual = 5.35057e-08, No Iterations 20
Updating old interface data for additonal non orthogonal/PISO correctors.
time step continuity errors : sum local = 5.41173e-10, global = -3.09773e-13, cumulative = -8.15973e-13
amgSolver:  Solving for pd, Initial residual = 0.0369927, Final residual = 2.71287e-08, No Iterations 20
time step continuity errors : sum local = 3.76042e-10, global = 2.12286e-13, cumulative = -6.03686e-13
Writing data at time 0.0391128
ExecutionTime = 0.44 s  ClockTime = 0 s

Volume: new = 4 old = 4 change = 0 ratio = 0
Courant Number mean: 0.014564 max: 0.200444 velocity magnitude: 7.6771
Interface Courant Number mean: 0 max: 0
deltaT = 0.00272667
Time = 0.0418395

PIMPLE: iteration 1
Mesh Courant Number mean: 0 max: 0
amgSolver:  Solving for Voltage, Initial residual = 0, Final residual = 0, No Iterations 1
BiCGStab:  Solving for Ux, Initial residual = 0.984607, Final residual = 1.19277e-09, No Iterations 3
BiCGStab:  Solving for Uy, Initial residual = 0.031767, Final residual = 1.48588e-10, No Iterations 3
amgSolver:  Solving for pd, Initial residual = 0.0709363, Final residual = 4.97391e-08, No Iterations 20
Updating old interface data for additonal non orthogonal/PISO correctors.
time step continuity errors : sum local = 5.53918e-10, global = 3.13687e-13, cumulative = -2.89999e-13
amgSolver:  Solving for pd, Initial residual = 0.070839, Final residual = 5.18656e-08, No Iterations 20
time step continuity errors : sum local = 3.86979e-10, global = -2.16001e-13, cumulative = -5.06e-13
PIMPLE: iteration 2
Mesh Courant Number mean: 0 max: 0
amgSolver:  Solving for Voltage, Initial residual = 0, Final residual = 0, No Iterations 1
BiCGStab:  Solving for Ux, Initial residual = 0.981971, Final residual = 7.99599e-11, No Iterations 3
BiCGStab:  Solving for Uy, Initial residual = 0.134209, Final residual = 1.83726e-10, No Iterations 3
amgSolver:  Solving for pd, Initial residual = 0.0784314, Final residual = 5.50263e-08, No Iterations 20
Updating old interface data for additonal non orthogonal/PISO correctors.
time step continuity errors : sum local = 5.56663e-10, global = -3.21595e-13, cumulative = -8.27596e-13
amgSolver:  Solving for pd, Initial residual = 0.0384421, Final residual = 2.80459e-08, No Iterations 20
time step continuity errors : sum local = 3.85829e-10, global = 2.20162e-13, cumulative = -6.07434e-13
Writing data at time 0.0418395
ExecutionTime = 0.48 s  ClockTime = 0 s

Volume: new = 4 old = 4 change = 0 ratio = 0
Courant Number mean: 0.0149341 max: 0.200448 velocity magnitude: 7.73565
Interface Courant Number mean: 0 max: 0
deltaT = 0.00272058
Time = 0.0445601

PIMPLE: iteration 1
Mesh Courant Number mean: 0 max: 0
amgSolver:  Solving for Voltage, Initial residual = 0, Final residual = 0, No Iterations 1
BiCGStab:  Solving for Ux, Initial residual = 0.981885, Final residual = 9.60962e-10, No Iterations 3
BiCGStab:  Solving for Uy, Initial residual = 0.0307996, Final residual = 1.49946e-10, No Iterations 3
amgSolver:  Solving for pd, Initial residual = 0.0733309, Final residual = 5.1329e-08, No Iterations 20
Updating old interface data for additonal non orthogonal/PISO correctors.
time step continuity errors : sum local = 5.69845e-10, global = 3.26164e-13, cumulative = -2.8127e-13
amgSolver:  Solving for pd, Initial residual = 0.0723329, Final residual = 5.27607e-08, No Iterations 20
time step continuity errors : sum local = 3.97286e-10, global = -2.24386e-13, cumulative = -5.05656e-13
PIMPLE: iteration 2
Mesh Courant Number mean: 0 max: 0
amgSolver:  Solving for Voltage, Initial residual = 0, Final residual = 0, No Iterations 1
BiCGStab:  Solving for Ux, Initial residual = 0.982159, Final residual = 7.49781e-11, No Iterations 3
BiCGStab:  Solving for Uy, Initial residual = 0.137792, Final residual = 1.89719e-10, No Iterations 3
amgSolver:  Solving for pd, Initial residual = 0.0808068, Final residual = 5.65029e-08, No Iterations 20
Updating old interface data for additonal non orthogonal/PISO correctors.
time step continuity errors : sum local = 5.71693e-10, global = -3.34161e-13, cumulative = -8.39818e-13
amgSolver:  Solving for pd, Initial residual = 0.0398461, Final residual = 2.89315e-08, No Iterations 20
time step continuity errors : sum local = 3.95484e-10, global = 2.2855e-13, cumulative = -6.11267e-13
Writing data at time 0.0445601
ExecutionTime = 0.52 s  ClockTime = 0 s

Volume: new = 4 old = 4 change = 0 ratio = 0
Courant Number mean: 0.0152914 max: 0.200435 velocity magnitude: 7.79519
Interface Courant Number mean: 0 max: 0
deltaT = 0.00271467
Time = 0.0472748

PIMPLE: iteration 1
Mesh Courant Number mean: 0 max: 0
amgSolver:  Solving for Voltage, Initial residual = 0, Final residual = 0, No Iterations 1
BiCGStab:  Solving for Ux, Initial residual = 0.982199, Final residual = 9.63981e-10, No Iterations 3
BiCGStab:  Solving for Uy, Initial residual = 0.0298794, Final residual = 1.51082e-10, No Iterations 3
amgSolver:  Solving for pd, Initial residual = 0.07571, Final residual = 5.28697e-08, No Iterations 20
Updating old interface data for additonal non orthogonal/PISO correctors.
time step continuity errors : sum local = 5.8544e-10, global = 3.39287e-13, cumulative = -2.71981e-13
amgSolver:  Solving for pd, Initial residual = 0.0738592, Final residual = 5.37092e-08, No Iterations 20
time step continuity errors : sum local = 4.07501e-10, global = -2.33268e-13, cumulative = -5.05249e-13
PIMPLE: iteration 2
Mesh Courant Number mean: 0 max: 0
amgSolver:  Solving for Voltage, Initial residual = 0, Final residual = 0, No Iterations 1
BiCGStab:  Solving for Ux, Initial residual = 0.982361, Final residual = 7.07573e-11, No Iterations 3
BiCGStab:  Solving for Uy, Initial residual = 0.141231, Final residual = 1.94187e-10, No Iterations 3
amgSolver:  Solving for pd, Initial residual = 0.0831859, Final residual = 5.79574e-08, No Iterations 20
Updating old interface data for additonal non orthogonal/PISO correctors.
time step continuity errors : sum local = 5.86498e-10, global = -3.47247e-13, cumulative = -8.52495e-13
amgSolver:  Solving for pd, Initial residual = 0.0412056, Final residual = 2.97952e-08, No Iterations 20
time step continuity errors : sum local = 4.05099e-10, global = 2.37337e-13, cumulative = -6.15158e-13
Writing data at time 0.0472748
ExecutionTime = 0.56 s  ClockTime = 0 s

Volume: new = 4 old = 4 change = 0 ratio = 0
Courant Number mean: 0.0156643 max: 0.200413 velocity magnitude: 7.85512
Interface Courant Number mean: 0 max: 0
deltaT = 0.00270908
Time = 0.0499838

PIMPLE: iteration 1
Mesh Courant Number mean: 0 max: 0
amgSolver:  Solving for Voltage, Initial residual = 0, Final residual = 0, No Iterations 1
BiCGStab:  Solving for Ux, Initial residual = 0.982402, Final residual = 1.02744e-09, No Iterations 3
BiCGStab:  Solving for Uy, Initial residual = 0.0290102, Final residual = 1.5243e-10, No Iterations 3
amgSolver:  Solving for pd, Initial residual = 0.0780161, Final residual = 5.43765e-08, No Iterations 20
Updating old interface data for additonal non orthogonal/PISO correctors.
time step continuity errors : sum local = 6.00901e-10, global = 3.53004e-13, cumulative = -2.62155e-13
amgSolver:  Solving for pd, Initial residual = 0.0754169, Final residual = 5.47062e-08, No Iterations 20
time step continuity errors : sum local = 4.17756e-10, global = -2.42575e-13, cumulative = -5.0473e-13
PIMPLE: iteration 2
Mesh Courant Number mean: 0 max: 0
amgSolver:  Solving for Voltage, Initial residual = 0, Final residual = 0, No Iterations 1
BiCGStab:  Solving for Ux, Initial residual = 0.982449, Final residual = 6.71817e-11, No Iterations 3
BiCGStab:  Solving for Uy, Initial residual = 0.144477, Final residual = 1.97484e-10, No Iterations 3
amgSolver:  Solving for pd, Initial residual = 0.0854954, Final residual = 5.93682e-08, No Iterations 20
Updating old interface data for additonal non orthogonal/PISO correctors.
time step continuity errors : sum local = 6.00905e-10, global = -3.60762e-13, cumulative = -8.65492e-13
amgSolver:  Solving for pd, Initial residual = 0.0425393, Final residual = 3.06294e-08, No Iterations 20
time step continuity errors : sum local = 4.14552e-10, global = 2.46375e-13, cumulative = -6.19117e-13
Writing data at time 0.0499838
ExecutionTime = 0.61 s  ClockTime = 0 s

Volume: new = 4 old = 4 change = 0 ratio = 0
Courant Number mean: 0.0160251 max: 0.200387 velocity magnitude: 7.94181
Interface Courant Number mean: 0 max: 0
deltaT = 0.00270385
Time = 0.0526877

PIMPLE: iteration 1
Mesh Courant Number mean: 0 max: 0
amgSolver:  Solving for Voltage, Initial residual = 0, Final residual = 0, No Iterations 1
BiCGStab:  Solving for Ux, Initial residual = 0.982607, Final residual = 1.19298e-09, No Iterations 3
BiCGStab:  Solving for Uy, Initial residual = 0.0281928, Final residual = 1.53833e-10, No Iterations 3
amgSolver:  Solving for pd, Initial residual = 0.0802344, Final residual = 5.58294e-08, No Iterations 20
Updating old interface data for additonal non orthogonal/PISO correctors.
time step continuity errors : sum local = 6.15975e-10, global = 3.67119e-13, cumulative = -2.51998e-13
amgSolver:  Solving for pd, Initial residual = 0.0770272, Final residual = 5.57128e-08, No Iterations 20
time step continuity errors : sum local = 4.27824e-10, global = -2.52114e-13, cumulative = -5.04112e-13
PIMPLE: iteration 2
Mesh Courant Number mean: 0 max: 0
amgSolver:  Solving for Voltage, Initial residual = 0, Final residual = 0, No Iterations 1
BiCGStab:  Solving for Ux, Initial residual = 0.982562, Final residual = 6.41438e-11, No Iterations 3
BiCGStab:  Solving for Uy, Initial residual = 0.147491, Final residual = 1.99941e-10, No Iterations 3
amgSolver:  Solving for pd, Initial residual = 0.0877455, Final residual = 6.07535e-08, No Iterations 20
Updating old interface data for additonal non orthogonal/PISO correctors.
time step continuity errors : sum local = 6.15118e-10, global = -3.74546e-13, cumulative = -8.78658e-13
amgSolver:  Solving for pd, Initial residual = 0.0438507, Final residual = 3.14419e-08, No Iterations 20
time step continuity errors : sum local = 4.23937e-10, global = 2.55647e-13, cumulative = -6.23011e-13
Writing data at time 0.0526877
ExecutionTime = 0.65 s  ClockTime = 0 s

Volume: new = 4 old = 4 change = 0 ratio = 0
Courant Number mean: 0.0163697 max: 0.200359 velocity magnitude: 8.04652
Interface Courant Number mean: 0 max: 0
deltaT = 0.00269901
Time = 0.0553867

PIMPLE: iteration 1
Mesh Courant Number mean: 0 max: 0
amgSolver:  Solving for Voltage, Initial residual = 0, Final residual = 0, No Iterations 1
BiCGStab:  Solving for Ux, Initial residual = 0.98284, Final residual = 1.49866e-09, No Iterations 3
BiCGStab:  Solving for Uy, Initial residual = 0.027419, Final residual = 1.55285e-10, No Iterations 3
amgSolver:  Solving for pd, Initial residual = 0.0824137, Final residual = 5.72429e-08, No Iterations 20
Updating old interface data for additonal non orthogonal/PISO correctors.
time step continuity errors : sum local = 6.30807e-10, global = 3.81406e-13, cumulative = -2.41604e-13
amgSolver:  Solving for pd, Initial residual = 0.0786393, Final residual = 5.67345e-08, No Iterations 20
time step continuity errors : sum local = 4.37807e-10, global = -2.61856e-13, cumulative = -5.03461e-13
PIMPLE: iteration 2
Mesh Courant Number mean: 0 max: 0
amgSolver:  Solving for Voltage, Initial residual = 0, Final residual = 0, No Iterations 1
BiCGStab:  Solving for Ux, Initial residual = 0.982698, Final residual = 6.15372e-11, No Iterations 3
BiCGStab:  Solving for Uy, Initial residual = 0.150335, Final residual = 2.01817e-10, No Iterations 3
amgSolver:  Solving for pd, Initial residual = 0.0899973, Final residual = 6.20948e-08, No Iterations 20
Updating old interface data for additonal non orthogonal/PISO correctors.
time step continuity errors : sum local = 6.28945e-10, global = -3.8851e-13, cumulative = -8.91971e-13
amgSolver:  Solving for pd, Initial residual = 0.0451196, Final residual = 3.22245e-08, No Iterations 20
time step continuity errors : sum local = 4.33123e-10, global = 2.65022e-13, cumulative = -6.26949e-13
Writing data at time 0.0553867
ExecutionTime = 0.68 s  ClockTime = 0 s

Volume: new = 4 old = 4 change = 0 ratio = 0
Courant Number mean: 0.0166984 max: 0.201148 velocity magnitude: 8.14638
Interface Courant Number mean: 0 max: 0
deltaT = 0.0026836
Time = 0.0580703

PIMPLE: iteration 1
Mesh Courant Number mean: 0 max: 0
amgSolver:  Solving for Voltage, Initial residual = 0, Final residual = 0, No Iterations 1
BiCGStab:  Solving for Ux, Initial residual = 0.982991, Final residual = 1.91846e-09, No Iterations 3
BiCGStab:  Solving for Uy, Initial residual = 0.0265871, Final residual = 1.51619e-10, No Iterations 3
amgSolver:  Solving for pd, Initial residual = 0.0843274, Final residual = 5.8482e-08, No Iterations 20
Updating old interface data for additonal non orthogonal/PISO correctors.
time step continuity errors : sum local = 6.40354e-10, global = 3.92379e-13, cumulative = -2.3457e-13
amgSolver:  Solving for pd, Initial residual = 0.0797085, Final residual = 5.73962e-08, No Iterations 20
time step continuity errors : sum local = 4.43609e-10, global = -2.68964e-13, cumulative = -5.03534e-13
PIMPLE: iteration 2
Mesh Courant Number mean: 0 max: 0
amgSolver:  Solving for Voltage, Initial residual = 0, Final residual = 0, No Iterations 1
BiCGStab:  Solving for Ux, Initial residual = 0.982721, Final residual = 5.7593e-11, No Iterations 3
BiCGStab:  Solving for Uy, Initial residual = 0.157707, Final residual = 2.02737e-10, No Iterations 3
amgSolver:  Solving for pd, Initial residual = 0.0915984, Final residual = 6.29918e-08, No Iterations 20
Updating old interface data for additonal non orthogonal/PISO correctors.
time step continuity errors : sum local = 6.34859e-10, global = -3.9716e-13, cumulative = -9.00695e-13
amgSolver:  Solving for pd, Initial residual = 0.0461091, Final residual = 3.2818e-08, No Iterations 20
time step continuity errors : sum local = 4.36373e-10, global = 2.70473e-13, cumulative = -6.30222e-13
Writing data at time 0.0580703
ExecutionTime = 0.73 s  ClockTime = 0 s

Volume: new = 4 old = 4 change = 0 ratio = 0
Courant Number mean: 0.0168737 max: 0.200363 velocity magnitude: 8.21214
Interface Courant Number mean: 0 max: 0
deltaT = 0.00267874
Time = 0.060749

PIMPLE: iteration 1
Mesh Courant Number mean: 0 max: 0
amgSolver:  Solving for Voltage, Initial residual = 0, Final residual = 0, No Iterations 1
BiCGStab:  Solving for Ux, Initial residual = 0.983052, Final residual = 2.89211e-09, No Iterations 3
BiCGStab:  Solving for Uy, Initial residual = 0.0245146, Final residual = 1.47471e-10, No Iterations 3
amgSolver:  Solving for pd, Initial residual = 0.0857653, Final residual = 5.93865e-08, No Iterations 20
Updating old interface data for additonal non orthogonal/PISO correctors.
time step continuity errors : sum local = 6.48997e-10, global = 4.03593e-13, cumulative = -2.26629e-13
amgSolver:  Solving for pd, Initial residual = 0.0805475, Final residual = 5.79044e-08, No Iterations 20
time step continuity errors : sum local = 4.49357e-10, global = -2.76557e-13, cumulative = -5.03186e-13
PIMPLE: iteration 2
Mesh Courant Number mean: 0 max: 0
amgSolver:  Solving for Voltage, Initial residual = 0, Final residual = 0, No Iterations 1
BiCGStab:  Solving for Ux, Initial residual = 0.982703, Final residual = 5.56315e-11, No Iterations 3
BiCGStab:  Solving for Uy, Initial residual = 0.160241, Final residual = 2.03333e-10, No Iterations 3
amgSolver:  Solving for pd, Initial residual = 0.0932594, Final residual = 6.39753e-08, No Iterations 20
Updating old interface data for additonal non orthogonal/PISO correctors.
time step continuity errors : sum local = 6.44608e-10, global = -4.08609e-13, cumulative = -9.11795e-13
amgSolver:  Solving for pd, Initial residual = 0.0470951, Final residual = 3.3431e-08, No Iterations 20
time step continuity errors : sum local = 4.42777e-10, global = 2.78152e-13, cumulative = -6.33643e-13
Writing data at time 0.060749
ExecutionTime = 0.77 s  ClockTime = 0 s

Volume: new = 4 old = 4 change = 0 ratio = 0
Courant Number mean: 0.0170898 max: 0.200205 velocity magnitude: 8.33879
Interface Courant Number mean: 0 max: 0
deltaT = 0.00267599
Time = 0.063425

PIMPLE: iteration 1
Mesh Courant Number mean: 0 max: 0
amgSolver:  Solving for Voltage, Initial residual = 0, Final residual = 0, No Iterations 1
BiCGStab:  Solving for Ux, Initial residual = 0.983115, Final residual = 5.54451e-09, No Iterations 3
BiCGStab:  Solving for Uy, Initial residual = 0.0237136, Final residual = 1.47447e-10, No Iterations 3
amgSolver:  Solving for pd, Initial residual = 0.0873444, Final residual = 6.04146e-08, No Iterations 20
Updating old interface data for additonal non orthogonal/PISO correctors.
time step continuity errors : sum local = 6.59804e-10, global = 4.15739e-13, cumulative = -2.17904e-13
amgSolver:  Solving for pd, Initial residual = 0.0816137, Final residual = 5.85939e-08, No Iterations 20
time step continuity errors : sum local = 4.56678e-10, global = -2.84861e-13, cumulative = -5.02766e-13
PIMPLE: iteration 2
Mesh Courant Number mean: 0 max: 0
amgSolver:  Solving for Voltage, Initial residual = 0, Final residual = 0, No Iterations 1
BiCGStab:  Solving for Ux, Initial residual = 0.9827, Final residual = 5.41825e-11, No Iterations 3
BiCGStab:  Solving for Uy, Initial residual = 0.161944, Final residual = 2.04001e-10, No Iterations 3
amgSolver:  Solving for pd, Initial residual = 0.094914, Final residual = 6.4971e-08, No Iterations 20
Updating old interface data for additonal non orthogonal/PISO correctors.
time step continuity errors : sum local = 6.55085e-10, global = -4.20598e-13, cumulative = -9.23364e-13
amgSolver:  Solving for pd, Initial residual = 0.0480601, Final residual = 3.40408e-08, No Iterations 20
time step continuity errors : sum local = 4.4983e-10, global = 2.86227e-13, cumulative = -6.37137e-13
Writing data at time 0.063425
ExecutionTime = 0.81 s  ClockTime = 0 s

Volume: new = 4 old = 4 change = 0 ratio = 0
Courant Number mean: 0.0173074 max: 0.200178 velocity magnitude: 8.57187
Interface Courant Number mean: 0 max: 0
deltaT = 0.00267362
Time = 0.0660986

PIMPLE: iteration 1
Mesh Courant Number mean: 0 max: 0
amgSolver:  Solving for Voltage, Initial residual = 0, Final residual = 0, No Iterations 1
BiCGStab:  Solving for Ux, Initial residual = 0.983191, Final residual = 2.70524e-12, No Iterations 4
BiCGStab:  Solving for Uy, Initial residual = 0.0231882, Final residual = 1.48199e-10, No Iterations 3
amgSolver:  Solving for pd, Initial residual = 0.0889106, Final residual = 6.14372e-08, No Iterations 20
Updating old interface data for additonal non orthogonal/PISO correctors.
time step continuity errors : sum local = 6.70772e-10, global = 4.27992e-13, cumulative = -2.09145e-13
amgSolver:  Solving for pd, Initial residual = 0.0827092, Final residual = 5.9317e-08, No Iterations 20
time step continuity errors : sum local = 4.64163e-10, global = -2.93211e-13, cumulative = -5.02357e-13
PIMPLE: iteration 2
Mesh Courant Number mean: 0 max: 0
amgSolver:  Solving for Voltage, Initial residual = 0, Final residual = 0, No Iterations 1
BiCGStab:  Solving for Ux, Initial residual = 0.982717, Final residual = 5.29333e-11, No Iterations 3
BiCGStab:  Solving for Uy, Initial residual = 0.163471, Final residual = 2.04599e-10, No Iterations 3
amgSolver:  Solving for pd, Initial residual = 0.0965298, Final residual = 6.59545e-08, No Iterations 20
Updating old interface data for additonal non orthogonal/PISO correctors.
time step continuity errors : sum local = 6.65536e-10, global = -4.32554e-13, cumulative = -9.34911e-13
amgSolver:  Solving for pd, Initial residual = 0.0489937, Final residual = 3.46337e-08, No Iterations 20
time step continuity errors : sum local = 4.56865e-10, global = 2.94296e-13, cumulative = -6.40615e-13
Writing data at time 0.0660986
ExecutionTime = 0.86 s  ClockTime = 0 s

Volume: new = 4 old = 4 change = 0 ratio = 0
Courant Number mean: 0.0175174 max: 0.200165 velocity magnitude: 8.79507
Interface Courant Number mean: 0 max: 0
deltaT = 0.00267141
Time = 0.06877

PIMPLE: iteration 1
Mesh Courant Number mean: 0 max: 0
amgSolver:  Solving for Voltage, Initial residual = 0, Final residual = 0, No Iterations 1
BiCGStab:  Solving for Ux, Initial residual = 0.98293, Final residual = 5.37038e-09, No Iterations 3
BiCGStab:  Solving for Uy, Initial residual = 0.0227221, Final residual = 1.49067e-10, No Iterations 3
amgSolver:  Solving for pd, Initial residual = 0.090437, Final residual = 6.24422e-08, No Iterations 20
Updating old interface data for additonal non orthogonal/PISO correctors.
time step continuity errors : sum local = 6.81674e-10, global = 4.40123e-13, cumulative = -2.00492e-13
amgSolver:  Solving for pd, Initial residual = 0.0837907, Final residual = 6.00516e-08, No Iterations 20
time step continuity errors : sum local = 4.71619e-10, global = -3.01514e-13, cumulative = -5.02006e-13
PIMPLE: iteration 2
Mesh Courant Number mean: 0 max: 0
amgSolver:  Solving for Voltage, Initial residual = 0, Final residual = 0, No Iterations 1
BiCGStab:  Solving for Ux, Initial residual = 0.982714, Final residual = 5.17903e-11, No Iterations 3
BiCGStab:  Solving for Uy, Initial residual = 0.164882, Final residual = 2.05002e-10, No Iterations 3
amgSolver:  Solving for pd, Initial residual = 0.0981032, Final residual = 6.69114e-08, No Iterations 20
Updating old interface data for additonal non orthogonal/PISO correctors.
time step continuity errors : sum local = 6.75752e-10, global = -4.44316e-13, cumulative = -9.46322e-13
amgSolver:  Solving for pd, Initial residual = 0.0498966, Final residual = 3.5207e-08, No Iterations 20
time step continuity errors : sum local = 4.63773e-10, global = 3.0233e-13, cumulative = -6.43992e-13
Writing data at time 0.06877
ExecutionTime = 0.9 s  ClockTime = 1 s

Volume: new = 4 old = 4 change = 0 ratio = 0
Courant Number mean: 0.0177188 max: 0.200155 velocity magnitude: 9.00858
Interface Courant Number mean: 0 max: 0
deltaT = 0.00266933
Time = 0.0714394

PIMPLE: iteration 1
Mesh Courant Number mean: 0 max: 0
amgSolver:  Solving for Voltage, Initial residual = 0, Final residual = 0, No Iterations 1
BiCGStab:  Solving for Ux, Initial residual = 0.981426, Final residual = 1.46483e-09, No Iterations 3
BiCGStab:  Solving for Uy, Initial residual = 0.0222789, Final residual = 1.49932e-10, No Iterations 3
amgSolver:  Solving for pd, Initial residual = 0.0919186, Final residual = 6.34189e-08, No Iterations 20
Updating old interface data for additonal non orthogonal/PISO correctors.
time step continuity errors : sum local = 6.92363e-10, global = 4.52118e-13, cumulative = -1.91874e-13
amgSolver:  Solving for pd, Initial residual = 0.0848526, Final residual = 6.07805e-08, No Iterations 20
time step continuity errors : sum local = 4.7892e-10, global = -3.0971e-13, cumulative = -5.01584e-13
PIMPLE: iteration 2
Mesh Courant Number mean: 0 max: 0
amgSolver:  Solving for Voltage, Initial residual = 0, Final residual = 0, No Iterations 1
BiCGStab:  Solving for Ux, Initial residual = 0.982248, Final residual = 5.06533e-11, No Iterations 3
BiCGStab:  Solving for Uy, Initial residual = 0.166175, Final residual = 2.05235e-10, No Iterations 3
amgSolver:  Solving for pd, Initial residual = 0.0996343, Final residual = 6.78552e-08, No Iterations 20
Updating old interface data for additonal non orthogonal/PISO correctors.
time step continuity errors : sum local = 6.85862e-10, global = -4.55958e-13, cumulative = -9.57542e-13
amgSolver:  Solving for pd, Initial residual = 0.0507698, Final residual = 3.57672e-08, No Iterations 20
time step continuity errors : sum local = 4.70621e-10, global = 3.10183e-13, cumulative = -6.47359e-13
Writing data at time 0.0714394
ExecutionTime = 0.94 s  ClockTime = 1 s

Volume: new = 4 old = 4 change = 0 ratio = 0
Courant Number mean: 0.0179121 max: 0.200145 velocity magnitude: 9.21257
Interface Courant Number mean: 0 max: 0
deltaT = 0.0026674
Time = 0.0741068

PIMPLE: iteration 1
Mesh Courant Number mean: 0 max: 0
amgSolver:  Solving for Voltage, Initial residual = 0, Final residual = 0, No Iterations 1
BiCGStab:  Solving for Ux, Initial residual = 0.980985, Final residual = 4.32497e-10, No Iterations 3
BiCGStab:  Solving for Uy, Initial residual = 0.0218585, Final residual = 1.50783e-10, No Iterations 3
amgSolver:  Solving for pd, Initial residual = 0.0933549, Final residual = 6.43649e-08, No Iterations 20
Updating old interface data for additonal non orthogonal/PISO correctors.
time step continuity errors : sum local = 7.02811e-10, global = 4.639e-13, cumulative = -1.83459e-13
amgSolver:  Solving for pd, Initial residual = 0.0859035, Final residual = 6.15046e-08, No Iterations 20
time step continuity errors : sum local = 4.86089e-10, global = -3.17801e-13, cumulative = -5.01259e-13
PIMPLE: iteration 2
Mesh Courant Number mean: 0 max: 0
amgSolver:  Solving for Voltage, Initial residual = 0, Final residual = 0, No Iterations 1
BiCGStab:  Solving for Ux, Initial residual = 0.982369, Final residual = 4.95853e-11, No Iterations 3
BiCGStab:  Solving for Uy, Initial residual = 0.167351, Final residual = 2.05364e-10, No Iterations 3
amgSolver:  Solving for pd, Initial residual = 0.101128, Final residual = 6.87773e-08, No Iterations 20
Updating old interface data for additonal non orthogonal/PISO correctors.
time step continuity errors : sum local = 6.95782e-10, global = -4.67393e-13, cumulative = -9.68652e-13
amgSolver:  Solving for pd, Initial residual = 0.0516147, Final residual = 3.63087e-08, No Iterations 20
time step continuity errors : sum local = 4.77329e-10, global = 3.17936e-13, cumulative = -6.50716e-13
Writing data at time 0.0741068
ExecutionTime = 0.98 s  ClockTime = 1 s

Volume: new = 4 old = 4 change = 0 ratio = 0
Courant Number mean: 0.0180974 max: 0.200136 velocity magnitude: 9.40733
Interface Courant Number mean: 0 max: 0
deltaT = 0.00266559
Time = 0.0767724

PIMPLE: iteration 1
Mesh Courant Number mean: 0 max: 0
amgSolver:  Solving for Voltage, Initial residual = 0, Final residual = 0, No Iterations 1
BiCGStab:  Solving for Ux, Initial residual = 0.981167, Final residual = 6.43662e-10, No Iterations 3
BiCGStab:  Solving for Uy, Initial residual = 0.0214615, Final residual = 1.51588e-10, No Iterations 3
amgSolver:  Solving for pd, Initial residual = 0.0947533, Final residual = 6.52907e-08, No Iterations 20
Updating old interface data for additonal non orthogonal/PISO correctors.
time step continuity errors : sum local = 7.1312e-10, global = 4.75516e-13, cumulative = -1.752e-13
amgSolver:  Solving for pd, Initial residual = 0.0869484, Final residual = 6.22274e-08, No Iterations 20
time step continuity errors : sum local = 4.93168e-10, global = -3.25712e-13, cumulative = -5.00912e-13
PIMPLE: iteration 2
Mesh Courant Number mean: 0 max: 0
amgSolver:  Solving for Voltage, Initial residual = 0, Final residual = 0, No Iterations 1
BiCGStab:  Solving for Ux, Initial residual = 0.982516, Final residual = 4.85829e-11, No Iterations 3
BiCGStab:  Solving for Uy, Initial residual = 0.168443, Final residual = 2.05424e-10, No Iterations 3
amgSolver:  Solving for pd, Initial residual = 0.102588, Final residual = 6.96741e-08, No Iterations 20
Updating old interface data for additonal non orthogonal/PISO correctors.
time step continuity errors : sum local = 7.05466e-10, global = -4.78571e-13, cumulative = -9.79482e-13
amgSolver:  Solving for pd, Initial residual = 0.0524361, Final residual = 3.68333e-08, No Iterations 20
time step continuity errors : sum local = 4.83906e-10, global = 3.25567e-13, cumulative = -6.53915e-13
Writing data at time 0.0767724
ExecutionTime = 1.02 s  ClockTime = 1 s

Volume: new = 4 old = 4 change = 0 ratio = 0
Courant Number mean: 0.018275 max: 0.200127 velocity magnitude: 9.59314
Interface Courant Number mean: 0 max: 0
deltaT = 0.0026639
Time = 0.0794363

PIMPLE: iteration 1
Mesh Courant Number mean: 0 max: 0
amgSolver:  Solving for Voltage, Initial residual = 0, Final residual = 0, No Iterations 1
BiCGStab:  Solving for Ux, Initial residual = 0.98137, Final residual = 9.965e-10, No Iterations 3
BiCGStab:  Solving for Uy, Initial residual = 0.0210857, Final residual = 1.52356e-10, No Iterations 3
amgSolver:  Solving for pd, Initial residual = 0.0961157, Final residual = 6.61887e-08, No Iterations 20
Updating old interface data for additonal non orthogonal/PISO correctors.
time step continuity errors : sum local = 7.23196e-10, global = 4.86887e-13, cumulative = -1.67028e-13
amgSolver:  Solving for pd, Initial residual = 0.0879869, Final residual = 6.29381e-08, No Iterations 20
time step continuity errors : sum local = 5.00073e-10, global = -3.33513e-13, cumulative = -5.00541e-13
PIMPLE: iteration 2
Mesh Courant Number mean: 0 max: 0
amgSolver:  Solving for Voltage, Initial residual = 0, Final residual = 0, No Iterations 1
BiCGStab:  Solving for Ux, Initial residual = 0.982675, Final residual = 4.7659e-11, No Iterations 3
BiCGStab:  Solving for Uy, Initial residual = 0.169472, Final residual = 2.05458e-10, No Iterations 3
amgSolver:  Solving for pd, Initial residual = 0.104022, Final residual = 7.05575e-08, No Iterations 20
Updating old interface data for additonal non orthogonal/PISO correctors.
time step continuity errors : sum local = 7.15031e-10, global = -4.89597e-13, cumulative = -9.90138e-13
amgSolver:  Solving for pd, Initial residual = 0.0532368, Final residual = 3.73456e-08, No Iterations 20
time step continuity errors : sum local = 4.90406e-10, global = 3.32998e-13, cumulative = -6.57139e-13
Writing data at time 0.0794363
ExecutionTime = 1.06 s  ClockTime = 1 s

Volume: new = 4 old = 4 change = 0 ratio = 0
Courant Number mean: 0.0184453 max: 0.200118 velocity magnitude: 9.77037
Interface Courant Number mean: 0 max: 0
deltaT = 0.00266233
Time = 0.0820986

PIMPLE: iteration 1
Mesh Courant Number mean: 0 max: 0
amgSolver:  Solving for Voltage, Initial residual = 0, Final residual = 0, No Iterations 1
BiCGStab:  Solving for Ux, Initial residual = 0.981561, Final residual = 1.17705e-09, No Iterations 3
BiCGStab:  Solving for Uy, Initial residual = 0.0207277, Final residual = 1.53058e-10, No Iterations 3
amgSolver:  Solving for pd, Initial residual = 0.0974441, Final residual = 6.70591e-08, No Iterations 20
Updating old interface data for additonal non orthogonal/PISO correctors.
time step continuity errors : sum local = 7.33033e-10, global = 4.98032e-13, cumulative = -1.59107e-13
amgSolver:  Solving for pd, Initial residual = 0.0890227, Final residual = 6.36411e-08, No Iterations 20
time step continuity errors : sum local = 5.06843e-10, global = -3.41137e-13, cumulative = -5.00244e-13
PIMPLE: iteration 2
Mesh Courant Number mean: 0 max: 0
amgSolver:  Solving for Voltage, Initial residual = 0, Final residual = 0, No Iterations 1
BiCGStab:  Solving for Ux, Initial residual = 0.982832, Final residual = 4.67942e-11, No Iterations 3
BiCGStab:  Solving for Uy, Initial residual = 0.170409, Final residual = 2.05439e-10, No Iterations 3
amgSolver:  Solving for pd, Initial residual = 0.105408, Final residual = 7.14205e-08, No Iterations 20
Updating old interface data for additonal non orthogonal/PISO correctors.
time step continuity errors : sum local = 7.24407e-10, global = -5.00335e-13, cumulative = -1.00058e-12
amgSolver:  Solving for pd, Initial residual = 0.0540075, Final residual = 3.78413e-08, No Iterations 20
time step continuity errors : sum local = 4.96764e-10, global = 3.40303e-13, cumulative = -6.60276e-13
Writing data at time 0.0820986
ExecutionTime = 1.1 s  ClockTime = 1 s

Volume: new = 4 old = 4 change = 0 ratio = 0
Courant Number mean: 0.0186086 max: 0.20011 velocity magnitude: 9.93939
Interface Courant Number mean: 0 max: 0
deltaT = 0.00266087
Time = 0.0847595

PIMPLE: iteration 1
Mesh Courant Number mean: 0 max: 0
amgSolver:  Solving for Voltage, Initial residual = 0, Final residual = 0, No Iterations 1
BiCGStab:  Solving for Ux, Initial residual = 0.981751, Final residual = 1.24049e-09, No Iterations 3
BiCGStab:  Solving for Uy, Initial residual = 0.0203884, Final residual = 1.53689e-10, No Iterations 3
amgSolver:  Solving for pd, Initial residual = 0.0987228, Final residual = 6.79114e-08, No Iterations 20
Updating old interface data for additonal non orthogonal/PISO correctors.
time step continuity errors : sum local = 7.42725e-10, global = 5.08917e-13, cumulative = -1.51359e-13
amgSolver:  Solving for pd, Initial residual = 0.0900398, Final residual = 6.43401e-08, No Iterations 20
time step continuity errors : sum local = 5.13514e-10, global = -3.48617e-13, cumulative = -4.99976e-13
PIMPLE: iteration 2
Mesh Courant Number mean: 0 max: 0
amgSolver:  Solving for Voltage, Initial residual = 0, Final residual = 0, No Iterations 1
BiCGStab:  Solving for Ux, Initial residual = 0.982976, Final residual = 4.59799e-11, No Iterations 3
BiCGStab:  Solving for Uy, Initial residual = 0.171277, Final residual = 2.054e-10, No Iterations 3
amgSolver:  Solving for pd, Initial residual = 0.106747, Final residual = 7.22589e-08, No Iterations 20
Updating old interface data for additonal non orthogonal/PISO correctors.
time step continuity errors : sum local = 7.33546e-10, global = -5.10883e-13, cumulative = -1.01086e-12
amgSolver:  Solving for pd, Initial residual = 0.0547483, Final residual = 3.83212e-08, No Iterations 20
time step continuity errors : sum local = 5.02983e-10, global = 3.47428e-13, cumulative = -6.63431e-13
Writing data at time 0.0847595
ExecutionTime = 1.14 s  ClockTime = 1 s

Volume: new = 4 old = 4 change = 0 ratio = 0
Courant Number mean: 0.0187653 max: 0.200102 velocity magnitude: 10.1006
Interface Courant Number mean: 0 max: 0
deltaT = 0.00265951
Time = 0.087419

PIMPLE: iteration 1
Mesh Courant Number mean: 0 max: 0
amgSolver:  Solving for Voltage, Initial residual = 0, Final residual = 0, No Iterations 1
BiCGStab:  Solving for Ux, Initial residual = 0.98193, Final residual = 1.24829e-09, No Iterations 3
BiCGStab:  Solving for Uy, Initial residual = 0.0200659, Final residual = 1.54258e-10, No Iterations 3
amgSolver:  Solving for pd, Initial residual = 0.0999544, Final residual = 6.87396e-08, No Iterations 20
Updating old interface data for additonal non orthogonal/PISO correctors.
time step continuity errors : sum local = 7.52204e-10, global = 5.19571e-13, cumulative = -1.4386e-13
amgSolver:  Solving for pd, Initial residual = 0.0910316, Final residual = 6.5026e-08, No Iterations 20
time step continuity errors : sum local = 5.20022e-10, global = -3.55913e-13, cumulative = -4.99773e-13
PIMPLE: iteration 2
Mesh Courant Number mean: 0 max: 0
amgSolver:  Solving for Voltage, Initial residual = 0, Final residual = 0, No Iterations 1
BiCGStab:  Solving for Ux, Initial residual = 0.98312, Final residual = 4.52116e-11, No Iterations 3
BiCGStab:  Solving for Uy, Initial residual = 0.172076, Final residual = 2.05345e-10, No Iterations 3
amgSolver:  Solving for pd, Initial residual = 0.108039, Final residual = 7.30833e-08, No Iterations 20
Updating old interface data for additonal non orthogonal/PISO correctors.
time step continuity errors : sum local = 7.42558e-10, global = -5.21163e-13, cumulative = -1.02094e-12
amgSolver:  Solving for pd, Initial residual = 0.0554606, Final residual = 3.87901e-08, No Iterations 20
time step continuity errors : sum local = 5.09123e-10, global = 3.54393e-13, cumulative = -6.66544e-13
Writing data at time 0.087419
ExecutionTime = 1.18 s  ClockTime = 1 s

Volume: new = 4 old = 4 change = 0 ratio = 0
Courant Number mean: 0.0189157 max: 0.200095 velocity magnitude: 10.2544
Interface Courant Number mean: 0 max: 0
deltaT = 0.00265824
Time = 0.0900772

PIMPLE: iteration 1
Mesh Courant Number mean: 0 max: 0
amgSolver:  Solving for Voltage, Initial residual = 0, Final residual = 0, No Iterations 1
BiCGStab:  Solving for Ux, Initial residual = 0.982099, Final residual = 1.23194e-09, No Iterations 3
BiCGStab:  Solving for Uy, Initial residual = 0.0197592, Final residual = 1.54757e-10, No Iterations 3
amgSolver:  Solving for pd, Initial residual = 0.101141, Final residual = 6.95412e-08, No Iterations 20
Updating old interface data for additonal non orthogonal/PISO correctors.
time step continuity errors : sum local = 7.61435e-10, global = 5.29943e-13, cumulative = -1.366e-13
amgSolver:  Solving for pd, Initial residual = 0.091999, Final residual = 6.57007e-08, No Iterations 20
time step continuity errors : sum local = 5.26386e-10, global = -3.63065e-13, cumulative = -4.99665e-13
PIMPLE: iteration 2
Mesh Courant Number mean: 0 max: 0
amgSolver:  Solving for Voltage, Initial residual = 0, Final residual = 0, No Iterations 1
BiCGStab:  Solving for Ux, Initial residual = 0.983261, Final residual = 4.44869e-11, No Iterations 3
BiCGStab:  Solving for Uy, Initial residual = 0.172814, Final residual = 2.05276e-10, No Iterations 3
amgSolver:  Solving for pd, Initial residual = 0.109289, Final residual = 7.38908e-08, No Iterations 20
Updating old interface data for additonal non orthogonal/PISO correctors.
time step continuity errors : sum local = 7.51409e-10, global = -5.31173e-13, cumulative = -1.03084e-12
amgSolver:  Solving for pd, Initial residual = 0.056146, Final residual = 3.92451e-08, No Iterations 20
time step continuity errors : sum local = 5.15138e-10, global = 3.61201e-13, cumulative = -6.69637e-13
Writing data at time 0.0900772
ExecutionTime = 1.23 s  ClockTime = 1 s

Volume: new = 4 old = 4 change = 0 ratio = 0
Courant Number mean: 0.01906 max: 0.200089 velocity magnitude: 10.4011
Interface Courant Number mean: 0 max: 0
deltaT = 0.00265706
Time = 0.0927343

PIMPLE: iteration 1
Mesh Courant Number mean: 0 max: 0
amgSolver:  Solving for Voltage, Initial residual = 0, Final residual = 0, No Iterations 1
BiCGStab:  Solving for Ux, Initial residual = 0.982265, Final residual = 1.20638e-09, No Iterations 3
BiCGStab:  Solving for Uy, Initial residual = 0.0194683, Final residual = 1.55185e-10, No Iterations 3
amgSolver:  Solving for pd, Initial residual = 0.102286, Final residual = 7.03257e-08, No Iterations 20
Updating old interface data for additonal non orthogonal/PISO correctors.
time step continuity errors : sum local = 7.70521e-10, global = 5.40087e-13, cumulative = -1.2955e-13
amgSolver:  Solving for pd, Initial residual = 0.0929422, Final residual = 6.63693e-08, No Iterations 20
time step continuity errors : sum local = 5.32654e-10, global = -3.70016e-13, cumulative = -4.99566e-13
PIMPLE: iteration 2
Mesh Courant Number mean: 0 max: 0
amgSolver:  Solving for Voltage, Initial residual = 0, Final residual = 0, No Iterations 1
BiCGStab:  Solving for Ux, Initial residual = 0.983397, Final residual = 4.38028e-11, No Iterations 3
BiCGStab:  Solving for Uy, Initial residual = 0.17349, Final residual = 2.05209e-10, No Iterations 3
amgSolver:  Solving for pd, Initial residual = 0.110498, Final residual = 7.4675e-08, No Iterations 20
Updating old interface data for additonal non orthogonal/PISO correctors.
time step continuity errors : sum local = 7.60031e-10, global = -5.40943e-13, cumulative = -1.04051e-12
amgSolver:  Solving for pd, Initial residual = 0.0568061, Final residual = 3.96848e-08, No Iterations 20
time step continuity errors : sum local = 5.21005e-10, global = 3.67845e-13, cumulative = -6.72664e-13
Writing data at time 0.0927343
ExecutionTime = 1.27 s  ClockTime = 1 s

Volume: new = 4 old = 4 change = 0 ratio = 0
Courant Number mean: 0.0191987 max: 0.200083 velocity magnitude: 10.5412
Interface Courant Number mean: 0 max: 0
deltaT = 0.00265596
Time = 0.0953902

PIMPLE: iteration 1
Mesh Courant Number mean: 0 max: 0
amgSolver:  Solving for Voltage, Initial residual = 0, Final residual = 0, No Iterations 1
BiCGStab:  Solving for Ux, Initial residual = 0.982423, Final residual = 1.17794e-09, No Iterations 3
BiCGStab:  Solving for Uy, Initial residual = 0.0191932, Final residual = 1.55543e-10, No Iterations 3
amgSolver:  Solving for pd, Initial residual = 0.10339, Final residual = 7.10911e-08, No Iterations 20
Updating old interface data for additonal non orthogonal/PISO correctors.
time step continuity errors : sum local = 7.79435e-10, global = 5.49953e-13, cumulative = -1.22711e-13
amgSolver:  Solving for pd, Initial residual = 0.0938616, Final residual = 6.70262e-08, No Iterations 20
time step continuity errors : sum local = 5.38784e-10, global = -3.768e-13, cumulative = -4.99511e-13
PIMPLE: iteration 2
Mesh Courant Number mean: 0 max: 0
amgSolver:  Solving for Voltage, Initial residual = 0, Final residual = 0, No Iterations 1
BiCGStab:  Solving for Ux, Initial residual = 0.983525, Final residual = 4.31583e-11, No Iterations 3
BiCGStab:  Solving for Uy, Initial residual = 0.174108, Final residual = 2.05137e-10, No Iterations 3
amgSolver:  Solving for pd, Initial residual = 0.111667, Final residual = 7.54427e-08, No Iterations 20
Updating old interface data for additonal non orthogonal/PISO correctors.
time step continuity errors : sum local = 7.68495e-10, global = -5.50454e-13, cumulative = -1.04996e-12
amgSolver:  Solving for pd, Initial residual = 0.0574422, Final residual = 4.01142e-08, No Iterations 20
time step continuity errors : sum local = 5.26785e-10, global = 3.74326e-13, cumulative = -6.75639e-13
Writing data at time 0.0953902
ExecutionTime = 1.31 s  ClockTime = 1 s

Volume: new = 4 old = 4 change = 0 ratio = 0
Courant Number mean: 0.0193321 max: 0.200077 velocity magnitude: 10.6751
Interface Courant Number mean: 0 max: 0
deltaT = 0.00265494
Time = 0.0980452

PIMPLE: iteration 1
Mesh Courant Number mean: 0 max: 0
amgSolver:  Solving for Voltage, Initial residual = 0, Final residual = 0, No Iterations 1
BiCGStab:  Solving for Ux, Initial residual = 0.982574, Final residual = 1.15016e-09, No Iterations 3
BiCGStab:  Solving for Uy, Initial residual = 0.0189308, Final residual = 1.55833e-10, No Iterations 3
amgSolver:  Solving for pd, Initial residual = 0.104456, Final residual = 7.1832e-08, No Iterations 20
Updating old interface data for additonal non orthogonal/PISO correctors.
time step continuity errors : sum local = 7.88113e-10, global = 5.59585e-13, cumulative = -1.16054e-13
amgSolver:  Solving for pd, Initial residual = 0.0947592, Final residual = 6.76686e-08, No Iterations 20
time step continuity errors : sum local = 5.44758e-10, global = -3.83378e-13, cumulative = -4.99432e-13
PIMPLE: iteration 2
Mesh Courant Number mean: 0 max: 0
amgSolver:  Solving for Voltage, Initial residual = 0, Final residual = 0, No Iterations 1
BiCGStab:  Solving for Ux, Initial residual = 0.983629, Final residual = 4.25523e-11, No Iterations 3
BiCGStab:  Solving for Uy, Initial residual = 0.174671, Final residual = 2.05059e-10, No Iterations 3
amgSolver:  Solving for pd, Initial residual = 0.112799, Final residual = 7.61974e-08, No Iterations 20
Updating old interface data for additonal non orthogonal/PISO correctors.
time step continuity errors : sum local = 7.76836e-10, global = -5.59731e-13, cumulative = -1.05916e-12
amgSolver:  Solving for pd, Initial residual = 0.0580557, Final residual = 4.05333e-08, No Iterations 20
time step continuity errors : sum local = 5.32472e-10, global = 3.80629e-13, cumulative = -6.78534e-13
Writing data at time 0.0980452
ExecutionTime = 1.35 s  ClockTime = 1 s

Volume: new = 4 old = 4 change = 0 ratio = 0
Courant Number mean: 0.0194603 max: 0.200072 velocity magnitude: 10.8031
Interface Courant Number mean: 0 max: 0
deltaT = 0.00265399
Time = 0.100699

PIMPLE: iteration 1
Mesh Courant Number mean: 0 max: 0
amgSolver:  Solving for Voltage, Initial residual = 0, Final residual = 0, No Iterations 1
BiCGStab:  Solving for Ux, Initial residual = 0.982717, Final residual = 1.12392e-09, No Iterations 3
BiCGStab:  Solving for Uy, Initial residual = 0.0186807, Final residual = 1.56059e-10, No Iterations 3
amgSolver:  Solving for pd, Initial residual = 0.105486, Final residual = 7.2554e-08, No Iterations 20
Updating old interface data for additonal non orthogonal/PISO correctors.
time step continuity errors : sum local = 7.96614e-10, global = 5.68944e-13, cumulative = -1.0959e-13
amgSolver:  Solving for pd, Initial residual = 0.0956349, Final residual = 6.83032e-08, No Iterations 20
time step continuity errors : sum local = 5.50633e-10, global = -3.89838e-13, cumulative = -4.99428e-13
PIMPLE: iteration 2
Mesh Courant Number mean: 0 max: 0
amgSolver:  Solving for Voltage, Initial residual = 0, Final residual = 0, No Iterations 1
BiCGStab:  Solving for Ux, Initial residual = 0.983723, Final residual = 4.19806e-11, No Iterations 3
BiCGStab:  Solving for Uy, Initial residual = 0.175182, Final residual = 2.04973e-10, No Iterations 3
amgSolver:  Solving for pd, Initial residual = 0.113896, Final residual = 7.69324e-08, No Iterations 20
Updating old interface data for additonal non orthogonal/PISO correctors.
time step continuity errors : sum local = 7.84983e-10, global = -5.68761e-13, cumulative = -1.06819e-12
amgSolver:  Solving for pd, Initial residual = 0.0586479, Final residual = 4.09386e-08, No Iterations 20
time step continuity errors : sum local = 5.38018e-10, global = 3.86764e-13, cumulative = -6.81426e-13
Writing data at time 0.100699
ExecutionTime = 1.39 s  ClockTime = 1 s

Volume: new = 4 old = 4 change = 0 ratio = 0
Courant Number mean: 0.0195836 max: 0.200067 velocity magnitude: 10.9255
Interface Courant Number mean: 0 max: 0
deltaT = 0.00265311
Time = 0.103352

PIMPLE: iteration 1
Mesh Courant Number mean: 0 max: 0
amgSolver:  Solving for Voltage, Initial residual = 0, Final residual = 0, No Iterations 1
BiCGStab:  Solving for Ux, Initial residual = 0.982853, Final residual = 1.09976e-09, No Iterations 3
BiCGStab:  Solving for Uy, Initial residual = 0.0184424, Final residual = 1.56225e-10, No Iterations 3
amgSolver:  Solving for pd, Initial residual = 0.106483, Final residual = 7.32611e-08, No Iterations 20
Updating old interface data for additonal non orthogonal/PISO correctors.
time step continuity errors : sum local = 8.04981e-10, global = 5.78065e-13, cumulative = -1.0336e-13
amgSolver:  Solving for pd, Initial residual = 0.0964895, Final residual = 6.89296e-08, No Iterations 20
time step continuity errors : sum local = 5.56408e-10, global = -3.96079e-13, cumulative = -4.99439e-13
PIMPLE: iteration 2
Mesh Courant Number mean: 0 max: 0
amgSolver:  Solving for Voltage, Initial residual = 0, Final residual = 0, No Iterations 1
BiCGStab:  Solving for Ux, Initial residual = 0.983814, Final residual = 4.14441e-11, No Iterations 3
BiCGStab:  Solving for Uy, Initial residual = 0.175647, Final residual = 2.04882e-10, No Iterations 3
amgSolver:  Solving for pd, Initial residual = 0.114959, Final residual = 7.76477e-08, No Iterations 20
Updating old interface data for additonal non orthogonal/PISO correctors.
time step continuity errors : sum local = 7.92935e-10, global = -5.77543e-13, cumulative = -1.07698e-12
amgSolver:  Solving for pd, Initial residual = 0.0592199, Final residual = 4.13326e-08, No Iterations 20
time step continuity errors : sum local = 5.43451e-10, global = 3.92735e-13, cumulative = -6.84247e-13
Writing data at time 0.103352
ExecutionTime = 1.43 s  ClockTime = 1 s

Volume: new = 4 old = 4 change = 0 ratio = 0
Courant Number mean: 0.0197024 max: 0.200062 velocity magnitude: 11.0427
Interface Courant Number mean: 0 max: 0
deltaT = 0.00265228
Time = 0.106005

PIMPLE: iteration 1
Mesh Courant Number mean: 0 max: 0
amgSolver:  Solving for Voltage, Initial residual = 0, Final residual = 0, No Iterations 1
BiCGStab:  Solving for Ux, Initial residual = 0.982982, Final residual = 1.07796e-09, No Iterations 3
BiCGStab:  Solving for Uy, Initial residual = 0.0182151, Final residual = 1.5634e-10, No Iterations 3
amgSolver:  Solving for pd, Initial residual = 0.107447, Final residual = 7.39486e-08, No Iterations 20
Updating old interface data for additonal non orthogonal/PISO correctors.
time step continuity errors : sum local = 8.13157e-10, global = 5.86941e-13, cumulative = -9.73069e-14
amgSolver:  Solving for pd, Initial residual = 0.097324, Final residual = 6.95417e-08, No Iterations 20
time step continuity errors : sum local = 5.62037e-10, global = -4.02175e-13, cumulative = -4.99482e-13
PIMPLE: iteration 2
Mesh Courant Number mean: 0 max: 0
amgSolver:  Solving for Voltage, Initial residual = 0, Final residual = 0, No Iterations 1
BiCGStab:  Solving for Ux, Initial residual = 0.983902, Final residual = 4.09422e-11, No Iterations 3
BiCGStab:  Solving for Uy, Initial residual = 0.17607, Final residual = 2.04793e-10, No Iterations 3
amgSolver:  Solving for pd, Initial residual = 0.115991, Final residual = 7.83514e-08, No Iterations 20
Updating old interface data for additonal non orthogonal/PISO correctors.
time step continuity errors : sum local = 8.00773e-10, global = -5.86123e-13, cumulative = -1.08561e-12
amgSolver:  Solving for pd, Initial residual = 0.0597727, Final residual = 4.17184e-08, No Iterations 20
time step continuity errors : sum local = 5.4881e-10, global = 3.98529e-13, cumulative = -6.87076e-13
Writing data at time 0.106005
ExecutionTime = 1.47 s  ClockTime = 1 s

Volume: new = 4 old = 4 change = 0 ratio = 0
Courant Number mean: 0.0198168 max: 0.200058 velocity magnitude: 11.155
Interface Courant Number mean: 0 max: 0
deltaT = 0.00265151
Time = 0.108656

PIMPLE: iteration 1
Mesh Courant Number mean: 0 max: 0
amgSolver:  Solving for Voltage, Initial residual = 0, Final residual = 0, No Iterations 1
BiCGStab:  Solving for Ux, Initial residual = 0.983104, Final residual = 1.05825e-09, No Iterations 3
BiCGStab:  Solving for Uy, Initial residual = 0.0179997, Final residual = 1.56411e-10, No Iterations 3
amgSolver:  Solving for pd, Initial residual = 0.108381, Final residual = 7.46153e-08, No Iterations 20
Updating old interface data for additonal non orthogonal/PISO correctors.
time step continuity errors : sum local = 8.21126e-10, global = 5.95559e-13, cumulative = -9.15175e-14
amgSolver:  Solving for pd, Initial residual = 0.0981387, Final residual = 7.01417e-08, No Iterations 20
time step continuity errors : sum local = 5.67541e-10, global = -4.08122e-13, cumulative = -4.99639e-13
PIMPLE: iteration 2
Mesh Courant Number mean: 0 max: 0
amgSolver:  Solving for Voltage, Initial residual = 0, Final residual = 0, No Iterations 1
BiCGStab:  Solving for Ux, Initial residual = 0.983989, Final residual = 4.0473e-11, No Iterations 3
BiCGStab:  Solving for Uy, Initial residual = 0.176448, Final residual = 2.04702e-10, No Iterations 3
amgSolver:  Solving for pd, Initial residual = 0.116992, Final residual = 7.90417e-08, No Iterations 20
Updating old interface data for additonal non orthogonal/PISO correctors.
time step continuity errors : sum local = 8.0848e-10, global = -5.944e-13, cumulative = -1.09404e-12
amgSolver:  Solving for pd, Initial residual = 0.0603073, Final residual = 4.2094e-08, No Iterations 20
time step continuity errors : sum local = 5.54064e-10, global = 4.04192e-13, cumulative = -6.89847e-13
Writing data at time 0.108656
ExecutionTime = 1.51 s  ClockTime = 1 s

Volume: new = 4 old = 4 change = 0 ratio = 0
Courant Number mean: 0.0199271 max: 0.200054 velocity magnitude: 11.2628
Interface Courant Number mean: 0 max: 0
deltaT = 0.0026508
Time = 0.111307

PIMPLE: iteration 1
Mesh Courant Number mean: 0 max: 0
amgSolver:  Solving for Voltage, Initial residual = 0, Final residual = 0, No Iterations 1
BiCGStab:  Solving for Ux, Initial residual = 0.983217, Final residual = 1.04059e-09, No Iterations 3
BiCGStab:  Solving for Uy, Initial residual = 0.0177946, Final residual = 1.56443e-10, No Iterations 3
amgSolver:  Solving for pd, Initial residual = 0.109286, Final residual = 7.52677e-08, No Iterations 20
Updating old interface data for additonal non orthogonal/PISO correctors.
time step continuity errors : sum local = 8.28959e-10, global = 6.03947e-13, cumulative = -8.58997e-14
amgSolver:  Solving for pd, Initial residual = 0.0989347, Final residual = 7.07347e-08, No Iterations 20
time step continuity errors : sum local = 5.72963e-10, global = -4.13874e-13, cumulative = -4.99774e-13
PIMPLE: iteration 2
Mesh Courant Number mean: 0 max: 0
amgSolver:  Solving for Voltage, Initial residual = 0, Final residual = 0, No Iterations 1
BiCGStab:  Solving for Ux, Initial residual = 0.984073, Final residual = 4.00343e-11, No Iterations 3
BiCGStab:  Solving for Uy, Initial residual = 0.176793, Final residual = 2.04612e-10, No Iterations 3
amgSolver:  Solving for pd, Initial residual = 0.117964, Final residual = 7.97133e-08, No Iterations 20
Updating old interface data for additonal non orthogonal/PISO correctors.
time step continuity errors : sum local = 8.15999e-10, global = -6.02516e-13, cumulative = -1.10229e-12
amgSolver:  Solving for pd, Initial residual = 0.0608249, Final residual = 4.24579e-08, No Iterations 20
time step continuity errors : sum local = 5.59192e-10, global = 4.09671e-13, cumulative = -6.92619e-13
Writing data at time 0.111307
ExecutionTime = 1.55 s  ClockTime = 1 s

Volume: new = 4 old = 4 change = 0 ratio = 0
Courant Number mean: 0.0200334 max: 0.20005 velocity magnitude: 11.3663
Interface Courant Number mean: 0 max: 0
deltaT = 0.00265013
Time = 0.113957

PIMPLE: iteration 1
Mesh Courant Number mean: 0 max: 0
amgSolver:  Solving for Voltage, Initial residual = 0, Final residual = 0, No Iterations 1
BiCGStab:  Solving for Ux, Initial residual = 0.983316, Final residual = 1.02468e-09, No Iterations 3
BiCGStab:  Solving for Uy, Initial residual = 0.0175996, Final residual = 1.56439e-10, No Iterations 3
amgSolver:  Solving for pd, Initial residual = 0.110164, Final residual = 7.59074e-08, No Iterations 20
Updating old interface data for additonal non orthogonal/PISO correctors.
time step continuity errors : sum local = 8.36671e-10, global = 6.12109e-13, cumulative = -8.05108e-14
amgSolver:  Solving for pd, Initial residual = 0.0997127, Final residual = 7.13179e-08, No Iterations 20
time step continuity errors : sum local = 5.78283e-10, global = -4.19509e-13, cumulative = -5.0002e-13
PIMPLE: iteration 2
Mesh Courant Number mean: 0 max: 0
amgSolver:  Solving for Voltage, Initial residual = 0, Final residual = 0, No Iterations 1
BiCGStab:  Solving for Ux, Initial residual = 0.984156, Final residual = 3.96214e-11, No Iterations 3
BiCGStab:  Solving for Uy, Initial residual = 0.177104, Final residual = 2.04522e-10, No Iterations 3
amgSolver:  Solving for pd, Initial residual = 0.118909, Final residual = 8.03689e-08, No Iterations 20
Updating old interface data for additonal non orthogonal/PISO correctors.
time step continuity errors : sum local = 8.23358e-10, global = -6.10364e-13, cumulative = -1.11038e-12
amgSolver:  Solving for pd, Initial residual = 0.0613263, Final residual = 4.28132e-08, No Iterations 20
time step continuity errors : sum local = 5.6423e-10, global = 4.15021e-13, cumulative = -6.95363e-13
Writing data at time 0.113957
ExecutionTime = 1.59 s  ClockTime = 1 s

Volume: new = 4 old = 4 change = 0 ratio = 0
Courant Number mean: 0.0201361 max: 0.200047 velocity magnitude: 11.4657
Interface Courant Number mean: 0 max: 0
deltaT = 0.0026495
Time = 0.116607

PIMPLE: iteration 1
Mesh Courant Number mean: 0 max: 0
amgSolver:  Solving for Voltage, Initial residual = 0, Final residual = 0, No Iterations 1
BiCGStab:  Solving for Ux, Initial residual = 0.983409, Final residual = 1.01057e-09, No Iterations 3
BiCGStab:  Solving for Uy, Initial residual = 0.0174134, Final residual = 1.56395e-10, No Iterations 3
amgSolver:  Solving for pd, Initial residual = 0.111016, Final residual = 7.6529e-08, No Iterations 20
Updating old interface data for additonal non orthogonal/PISO correctors.
time step continuity errors : sum local = 8.44199e-10, global = 6.20048e-13, cumulative = -7.53155e-14
amgSolver:  Solving for pd, Initial residual = 0.100473, Final residual = 7.18874e-08, No Iterations 20
time step continuity errors : sum local = 5.83471e-10, global = -4.24954e-13, cumulative = -5.00269e-13
PIMPLE: iteration 2
Mesh Courant Number mean: 0 max: 0
amgSolver:  Solving for Voltage, Initial residual = 0, Final residual = 0, No Iterations 1
BiCGStab:  Solving for Ux, Initial residual = 0.984236, Final residual = 3.9233e-11, No Iterations 3
BiCGStab:  Solving for Uy, Initial residual = 0.177385, Final residual = 2.04433e-10, No Iterations 3
amgSolver:  Solving for pd, Initial residual = 0.119828, Final residual = 8.10145e-08, No Iterations 20
Updating old interface data for additonal non orthogonal/PISO correctors.
time step continuity errors : sum local = 8.30619e-10, global = -6.17991e-13, cumulative = -1.11826e-12
amgSolver:  Solving for pd, Initial residual = 0.0618124, Final residual = 4.31615e-08, No Iterations 20
time step continuity errors : sum local = 5.69199e-10, global = 4.20231e-13, cumulative = -6.98029e-13
Writing data at time 0.116607
ExecutionTime = 1.63 s  ClockTime = 1 s

Volume: new = 4 old = 4 change = 0 ratio = 0
Courant Number mean: 0.0202353 max: 0.200044 velocity magnitude: 11.5614
Interface Courant Number mean: 0 max: 0
deltaT = 0.00264892
Time = 0.119255

PIMPLE: iteration 1
Mesh Courant Number mean: 0 max: 0
amgSolver:  Solving for Voltage, Initial residual = 0, Final residual = 0, No Iterations 1
BiCGStab:  Solving for Ux, Initial residual = 0.983499, Final residual = 9.97949e-10, No Iterations 3
BiCGStab:  Solving for Uy, Initial residual = 0.0172351, Final residual = 1.56313e-10, No Iterations 3
amgSolver:  Solving for pd, Initial residual = 0.111844, Final residual = 7.7133e-08, No Iterations 20
Updating old interface data for additonal non orthogonal/PISO correctors.
time step continuity errors : sum local = 8.51548e-10, global = 6.27756e-13, cumulative = -7.02739e-14
amgSolver:  Solving for pd, Initial residual = 0.101217, Final residual = 7.24464e-08, No Iterations 20
time step continuity errors : sum local = 5.88555e-10, global = -4.3027e-13, cumulative = -5.00544e-13
PIMPLE: iteration 2
Mesh Courant Number mean: 0 max: 0
amgSolver:  Solving for Voltage, Initial residual = 0, Final residual = 0, No Iterations 1
BiCGStab:  Solving for Ux, Initial residual = 0.984314, Final residual = 3.88666e-11, No Iterations 3
BiCGStab:  Solving for Uy, Initial residual = 0.177639, Final residual = 2.04349e-10, No Iterations 3
amgSolver:  Solving for pd, Initial residual = 0.120722, Final residual = 8.16477e-08, No Iterations 20
Updating old interface data for additonal non orthogonal/PISO correctors.
time step continuity errors : sum local = 8.37755e-10, global = -6.2538e-13, cumulative = -1.12592e-12
amgSolver:  Solving for pd, Initial residual = 0.0622841, Final residual = 4.35009e-08, No Iterations 20
time step continuity errors : sum local = 5.7407e-10, global = 4.253e-13, cumulative = -7.00624e-13
Writing data at time 0.119255
ExecutionTime = 1.68 s  ClockTime = 1 s

Volume: new = 4 old = 4 change = 0 ratio = 0
Courant Number mean: 0.0203311 max: 0.200041 velocity magnitude: 11.6536
Interface Courant Number mean: 0 max: 0
[...]
amgSolver:  Solving for pd, Initial residual = 0.0480909, Final residual = 8.71846e-06, No Iterations 20
time step continuity errors : sum local = 8.01728e-08, global = -6.12557e-13, cumulative = -1.34863e-12
Writing data at time 2.475421299863741
ExecutionTime = 39.2 s  ClockTime = 39 s

Volume: new = 4 old = 4 change = 0 ratio = 0
Courant Number mean: 0.0128118 max: 0.2 velocity magnitude: 7.91235
Interface Courant Number mean: 0 max: 0
deltaT = 0.00257113
Time = 2.477992434355884

PIMPLE: iteration 1
Mesh Courant Number mean: 0 max: 0
amgSolver:  Solving for Voltage, Initial residual = 0, Final residual = 0, No Iterations 1
BiCGStab:  Solving for Ux, Initial residual = 0.940235, Final residual = 2.85781e-10, No Iterations 3
BiCGStab:  Solving for Uy, Initial residual = 0.00618335, Final residual = 2.75544e-11, No Iterations 3
amgSolver:  Solving for pd, Initial residual = 0.0716669, Final residual = 1.277e-05, No Iterations 20
Updating old interface data for additonal non orthogonal/PISO correctors.
time step continuity errors : sum local = 1.18129e-07, global = -8.68253e-13, cumulative = -2.21688e-12
amgSolver:  Solving for pd, Initial residual = 0.0465686, Final residual = 8.55492e-06, No Iterations 20
time step continuity errors : sum local = 8.12965e-08, global = 6.87135e-13, cumulative = -1.52975e-12
PIMPLE: iteration 2
Mesh Courant Number mean: 0 max: 0
amgSolver:  Solving for Voltage, Initial residual = 0, Final residual = 0, No Iterations 1
BiCGStab:  Solving for Ux, Initial residual = 0.940828, Final residual = 6.22541e-11, No Iterations 3
BiCGStab:  Solving for Uy, Initial residual = 0.143092, Final residual = 1.59971e-10, No Iterations 3
amgSolver:  Solving for pd, Initial residual = 0.0702906, Final residual = 1.23758e-05, No Iterations 20
Updating old interface data for additonal non orthogonal/PISO correctors.
time step continuity errors : sum local = 1.16968e-07, global = 7.80935e-13, cumulative = -7.48812e-13
amgSolver:  Solving for pd, Initial residual = 0.048091, Final residual = 8.71847e-06, No Iterations 20
time step continuity errors : sum local = 8.01728e-08, global = -6.1226e-13, cumulative = -1.36107e-12
Writing data at time 2.477992434355884
ExecutionTime = 39.25 s  ClockTime = 39 s

Volume: new = 4 old = 4 change = 0 ratio = 0
Courant Number mean: 0.0128118 max: 0.2 velocity magnitude: 7.91235
Interface Courant Number mean: 0 max: 0
deltaT = 0.00257113
Time = 2.48056356869028

PIMPLE: iteration 1
Mesh Courant Number mean: 0 max: 0
amgSolver:  Solving for Voltage, Initial residual = 0, Final residual = 0, No Iterations 1
BiCGStab:  Solving for Ux, Initial residual = 0.940235, Final residual = 2.85782e-10, No Iterations 3
BiCGStab:  Solving for Uy, Initial residual = 0.00618332, Final residual = 2.75546e-11, No Iterations 3
amgSolver:  Solving for pd, Initial residual = 0.0716671, Final residual = 1.27701e-05, No Iterations 20
Updating old interface data for additonal non orthogonal/PISO correctors.
time step continuity errors : sum local = 1.18129e-07, global = -8.67801e-13, cumulative = -2.22887e-12
amgSolver:  Solving for pd, Initial residual = 0.0465687, Final residual = 8.55492e-06, No Iterations 20
time step continuity errors : sum local = 8.12966e-08, global = 6.86844e-13, cumulative = -1.54203e-12
PIMPLE: iteration 2
Mesh Courant Number mean: 0 max: 0
amgSolver:  Solving for Voltage, Initial residual = 0, Final residual = 0, No Iterations 1
BiCGStab:  Solving for Ux, Initial residual = 0.940828, Final residual = 6.22539e-11, No Iterations 3
BiCGStab:  Solving for Uy, Initial residual = 0.143093, Final residual = 1.59971e-10, No Iterations 3
amgSolver:  Solving for pd, Initial residual = 0.0702908, Final residual = 1.23758e-05, No Iterations 20
Updating old interface data for additonal non orthogonal/PISO correctors.
time step continuity errors : sum local = 1.16968e-07, global = 7.80498e-13, cumulative = -7.61531e-13
amgSolver:  Solving for pd, Initial residual = 0.0480911, Final residual = 8.71848e-06, No Iterations 20
time step continuity errors : sum local = 8.01729e-08, global = -6.11928e-13, cumulative = -1.37346e-12
Writing data at time 2.48056356869028
ExecutionTime = 39.29 s  ClockTime = 39 s

Volume: new = 4 old = 4 change = 0 ratio = 0
Courant Number mean: 0.0128119 max: 0.2 velocity magnitude: 7.91236
Interface Courant Number mean: 0 max: 0
deltaT = 0.00257113
Time = 2.483134702869549

PIMPLE: iteration 1
Mesh Courant Number mean: 0 max: 0
amgSolver:  Solving for Voltage, Initial residual = 0, Final residual = 0, No Iterations 1
BiCGStab:  Solving for Ux, Initial residual = 0.940235, Final residual = 2.85783e-10, No Iterations 3
BiCGStab:  Solving for Uy, Initial residual = 0.00618329, Final residual = 2.75548e-11, No Iterations 3
amgSolver:  Solving for pd, Initial residual = 0.0716672, Final residual = 1.27701e-05, No Iterations 20
Updating old interface data for additonal non orthogonal/PISO correctors.
time step continuity errors : sum local = 1.18129e-07, global = -8.67363e-13, cumulative = -2.24082e-12
amgSolver:  Solving for pd, Initial residual = 0.0465687, Final residual = 8.55493e-06, No Iterations 20
time step continuity errors : sum local = 8.12966e-08, global = 6.86544e-13, cumulative = -1.55428e-12
PIMPLE: iteration 2
Mesh Courant Number mean: 0 max: 0
amgSolver:  Solving for Voltage, Initial residual = 0, Final residual = 0, No Iterations 1
BiCGStab:  Solving for Ux, Initial residual = 0.940828, Final residual = 6.22537e-11, No Iterations 3
BiCGStab:  Solving for Uy, Initial residual = 0.143093, Final residual = 1.59971e-10, No Iterations 3
amgSolver:  Solving for pd, Initial residual = 0.0702909, Final residual = 1.23758e-05, No Iterations 20
Updating old interface data for additonal non orthogonal/PISO correctors.
time step continuity errors : sum local = 1.16968e-07, global = 7.80038e-13, cumulative = -7.74241e-13
amgSolver:  Solving for pd, Initial residual = 0.0480912, Final residual = 8.71849e-06, No Iterations 20
time step continuity errors : sum local = 8.01729e-08, global = -6.11623e-13, cumulative = -1.38586e-12
Writing data at time 2.483134702869549
ExecutionTime = 39.33 s  ClockTime = 39 s

Volume: new = 4 old = 4 change = 0 ratio = 0
Courant Number mean: 0.0128119 max: 0.2 velocity magnitude: 7.91237
Interface Courant Number mean: 0 max: 0
deltaT = 0.00257113
Time = 2.485705836896263

PIMPLE: iteration 1
Mesh Courant Number mean: 0 max: 0
amgSolver:  Solving for Voltage, Initial residual = 0, Final residual = 0, No Iterations 1
BiCGStab:  Solving for Ux, Initial residual = 0.940236, Final residual = 2.85783e-10, No Iterations 3
BiCGStab:  Solving for Uy, Initial residual = 0.00618326, Final residual = 2.75549e-11, No Iterations 3
amgSolver:  Solving for pd, Initial residual = 0.0716673, Final residual = 1.27701e-05, No Iterations 20
Updating old interface data for additonal non orthogonal/PISO correctors.
time step continuity errors : sum local = 1.18129e-07, global = -8.66935e-13, cumulative = -2.2528e-12
amgSolver:  Solving for pd, Initial residual = 0.0465688, Final residual = 8.55493e-06, No Iterations 20
time step continuity errors : sum local = 8.12967e-08, global = 6.86233e-13, cumulative = -1.56657e-12
PIMPLE: iteration 2
Mesh Courant Number mean: 0 max: 0
amgSolver:  Solving for Voltage, Initial residual = 0, Final residual = 0, No Iterations 1
BiCGStab:  Solving for Ux, Initial residual = 0.940828, Final residual = 6.22536e-11, No Iterations 3
BiCGStab:  Solving for Uy, Initial residual = 0.143093, Final residual = 1.59971e-10, No Iterations 3
amgSolver:  Solving for pd, Initial residual = 0.070291, Final residual = 1.23758e-05, No Iterations 20
Updating old interface data for additonal non orthogonal/PISO correctors.
time step continuity errors : sum local = 1.16969e-07, global = 7.7959e-13, cumulative = -7.86977e-13
amgSolver:  Solving for pd, Initial residual = 0.0480913, Final residual = 8.71849e-06, No Iterations 20
time step continuity errors : sum local = 8.0173e-08, global = -6.11321e-13, cumulative = -1.3983e-12
Writing data at time 2.485705836896263
ExecutionTime = 39.37 s  ClockTime = 39 s

Volume: new = 4 old = 4 change = 0 ratio = 0
Courant Number mean: 0.012812 max: 0.2 velocity magnitude: 7.91237
Interface Courant Number mean: 0 max: 0
deltaT = 0.00257113
Time = 2.48827697077295

PIMPLE: iteration 1
Mesh Courant Number mean: 0 max: 0
amgSolver:  Solving for Voltage, Initial residual = 0, Final residual = 0, No Iterations 1
BiCGStab:  Solving for Ux, Initial residual = 0.940236, Final residual = 2.85784e-10, No Iterations 3
BiCGStab:  Solving for Uy, Initial residual = 0.00618323, Final residual = 2.75551e-11, No Iterations 3
amgSolver:  Solving for pd, Initial residual = 0.0716675, Final residual = 1.27701e-05, No Iterations 20
Updating old interface data for additonal non orthogonal/PISO correctors.
time step continuity errors : sum local = 1.18129e-07, global = -8.66482e-13, cumulative = -2.26478e-12
amgSolver:  Solving for pd, Initial residual = 0.0465689, Final residual = 8.55494e-06, No Iterations 20
time step continuity errors : sum local = 8.12968e-08, global = 6.85973e-13, cumulative = -1.57881e-12
PIMPLE: iteration 2
Mesh Courant Number mean: 0 max: 0
amgSolver:  Solving for Voltage, Initial residual = 0, Final residual = 0, No Iterations 1
BiCGStab:  Solving for Ux, Initial residual = 0.940829, Final residual = 6.22534e-11, No Iterations 3
BiCGStab:  Solving for Uy, Initial residual = 0.143093, Final residual = 1.59971e-10, No Iterations 3
amgSolver:  Solving for pd, Initial residual = 0.0702911, Final residual = 1.23758e-05, No Iterations 20
Updating old interface data for additonal non orthogonal/PISO correctors.
time step continuity errors : sum local = 1.16969e-07, global = 7.79166e-13, cumulative = -7.9964e-13
amgSolver:  Solving for pd, Initial residual = 0.0480914, Final residual = 8.7185e-06, No Iterations 20
time step continuity errors : sum local = 8.0173e-08, global = -6.11017e-13, cumulative = -1.41066e-12
Writing data at time 2.48827697077295
ExecutionTime = 39.41 s  ClockTime = 39 s

Volume: new = 4 old = 4 change = 0 ratio = 0
Courant Number mean: 0.012812 max: 0.2 velocity magnitude: 7.91238
Interface Courant Number mean: 0 max: 0
deltaT = 0.00257113
Time = 2.490848104502095

PIMPLE: iteration 1
Mesh Courant Number mean: 0 max: 0
amgSolver:  Solving for Voltage, Initial residual = 0, Final residual = 0, No Iterations 1
BiCGStab:  Solving for Ux, Initial residual = 0.940236, Final residual = 2.85785e-10, No Iterations 3
BiCGStab:  Solving for Uy, Initial residual = 0.0061832, Final residual = 2.75552e-11, No Iterations 3
amgSolver:  Solving for pd, Initial residual = 0.0716676, Final residual = 1.27701e-05, No Iterations 20
Updating old interface data for additonal non orthogonal/PISO correctors.
time step continuity errors : sum local = 1.1813e-07, global = -8.66083e-13, cumulative = -2.27674e-12
amgSolver:  Solving for pd, Initial residual = 0.046569, Final residual = 8.55494e-06, No Iterations 20
time step continuity errors : sum local = 8.12968e-08, global = 6.85661e-13, cumulative = -1.59108e-12
PIMPLE: iteration 2
Mesh Courant Number mean: 0 max: 0
amgSolver:  Solving for Voltage, Initial residual = 0, Final residual = 0, No Iterations 1
BiCGStab:  Solving for Ux, Initial residual = 0.940829, Final residual = 6.22532e-11, No Iterations 3
BiCGStab:  Solving for Uy, Initial residual = 0.143093, Final residual = 1.59971e-10, No Iterations 3
amgSolver:  Solving for pd, Initial residual = 0.0702912, Final residual = 1.23758e-05, No Iterations 20
Updating old interface data for additonal non orthogonal/PISO correctors.
time step continuity errors : sum local = 1.16969e-07, global = 7.78723e-13, cumulative = -8.12356e-13
amgSolver:  Solving for pd, Initial residual = 0.0480915, Final residual = 8.71851e-06, No Iterations 20
time step continuity errors : sum local = 8.01731e-08, global = -6.10728e-13, cumulative = -1.42308e-12
Writing data at time 2.490848104502095
ExecutionTime = 39.45 s  ClockTime = 39 s

Volume: new = 4 old = 4 change = 0 ratio = 0
Courant Number mean: 0.012812 max: 0.2 velocity magnitude: 7.91238
Interface Courant Number mean: 0 max: 0
deltaT = 0.00257113
Time = 2.493419238086138

PIMPLE: iteration 1
Mesh Courant Number mean: 0 max: 0
amgSolver:  Solving for Voltage, Initial residual = 0, Final residual = 0, No Iterations 1
BiCGStab:  Solving for Ux, Initial residual = 0.940237, Final residual = 2.85785e-10, No Iterations 3
BiCGStab:  Solving for Uy, Initial residual = 0.00618317, Final residual = 2.75553e-11, No Iterations 3
amgSolver:  Solving for pd, Initial residual = 0.0716677, Final residual = 1.27701e-05, No Iterations 20
Updating old interface data for additonal non orthogonal/PISO correctors.
time step continuity errors : sum local = 1.1813e-07, global = -8.65645e-13, cumulative = -2.28873e-12
amgSolver:  Solving for pd, Initial residual = 0.046569, Final residual = 8.55495e-06, No Iterations 20
time step continuity errors : sum local = 8.12969e-08, global = 6.85397e-13, cumulative = -1.60333e-12
PIMPLE: iteration 2
Mesh Courant Number mean: 0 max: 0
amgSolver:  Solving for Voltage, Initial residual = 0, Final residual = 0, No Iterations 1
BiCGStab:  Solving for Ux, Initial residual = 0.940829, Final residual = 6.22531e-11, No Iterations 3
BiCGStab:  Solving for Uy, Initial residual = 0.143093, Final residual = 1.59971e-10, No Iterations 3
amgSolver:  Solving for pd, Initial residual = 0.0702914, Final residual = 1.23758e-05, No Iterations 20
Updating old interface data for additonal non orthogonal/PISO correctors.
time step continuity errors : sum local = 1.16969e-07, global = 7.78317e-13, cumulative = -8.25014e-13
amgSolver:  Solving for pd, Initial residual = 0.0480916, Final residual = 8.71852e-06, No Iterations 20
time step continuity errors : sum local = 8.01732e-08, global = -6.10443e-13, cumulative = -1.43546e-12
Writing data at time 2.493419238086138
ExecutionTime = 39.49 s  ClockTime = 39 s

Volume: new = 4 old = 4 change = 0 ratio = 0
Courant Number mean: 0.0128121 max: 0.2 velocity magnitude: 7.91239
Interface Courant Number mean: 0 max: 0
deltaT = 0.00257113
Time = 2.495990371527478

PIMPLE: iteration 1
Mesh Courant Number mean: 0 max: 0
amgSolver:  Solving for Voltage, Initial residual = 0, Final residual = 0, No Iterations 1
BiCGStab:  Solving for Ux, Initial residual = 0.940237, Final residual = 2.85786e-10, No Iterations 3
BiCGStab:  Solving for Uy, Initial residual = 0.00618314, Final residual = 2.75555e-11, No Iterations 3
amgSolver:  Solving for pd, Initial residual = 0.0716679, Final residual = 1.27701e-05, No Iterations 20
Updating old interface data for additonal non orthogonal/PISO correctors.
time step continuity errors : sum local = 1.1813e-07, global = -8.65256e-13, cumulative = -2.30071e-12
amgSolver:  Solving for pd, Initial residual = 0.0465691, Final residual = 8.55495e-06, No Iterations 20
time step continuity errors : sum local = 8.1297e-08, global = 6.85078e-13, cumulative = -1.61564e-12
PIMPLE: iteration 2
Mesh Courant Number mean: 0 max: 0
amgSolver:  Solving for Voltage, Initial residual = 0, Final residual = 0, No Iterations 1
BiCGStab:  Solving for Ux, Initial residual = 0.940829, Final residual = 6.22529e-11, No Iterations 3
BiCGStab:  Solving for Uy, Initial residual = 0.143093, Final residual = 1.59971e-10, No Iterations 3
amgSolver:  Solving for pd, Initial residual = 0.0702915, Final residual = 1.23758e-05, No Iterations 20
Updating old interface data for additonal non orthogonal/PISO correctors.
time step continuity errors : sum local = 1.16969e-07, global = 7.77888e-13, cumulative = -8.37747e-13
amgSolver:  Solving for pd, Initial residual = 0.0480917, Final residual = 8.71853e-06, No Iterations 20
time step continuity errors : sum local = 8.01732e-08, global = -6.10163e-13, cumulative = -1.44791e-12
Writing data at time 2.495990371527478
ExecutionTime = 39.53 s  ClockTime = 39 s

Volume: new = 4 old = 4 change = 0 ratio = 0
Courant Number mean: 0.0128121 max: 0.2 velocity magnitude: 7.91239
Interface Courant Number mean: 0 max: 0
deltaT = 0.00257113
Time = 2.498561504828472

PIMPLE: iteration 1
Mesh Courant Number mean: 0 max: 0
amgSolver:  Solving for Voltage, Initial residual = 0, Final residual = 0, No Iterations 1
BiCGStab:  Solving for Ux, Initial residual = 0.940237, Final residual = 2.85787e-10, No Iterations 3
BiCGStab:  Solving for Uy, Initial residual = 0.00618311, Final residual = 2.75556e-11, No Iterations 3
amgSolver:  Solving for pd, Initial residual = 0.071668, Final residual = 1.27701e-05, No Iterations 20
Updating old interface data for additonal non orthogonal/PISO correctors.
time step continuity errors : sum local = 1.1813e-07, global = -8.64864e-13, cumulative = -2.31277e-12
amgSolver:  Solving for pd, Initial residual = 0.0465692, Final residual = 8.55496e-06, No Iterations 20
time step continuity errors : sum local = 8.1297e-08, global = 6.84807e-13, cumulative = -1.62797e-12
PIMPLE: iteration 2
Mesh Courant Number mean: 0 max: 0
amgSolver:  Solving for Voltage, Initial residual = 0, Final residual = 0, No Iterations 1
BiCGStab:  Solving for Ux, Initial residual = 0.94083, Final residual = 6.22528e-11, No Iterations 3
BiCGStab:  Solving for Uy, Initial residual = 0.143093, Final residual = 1.59971e-10, No Iterations 3
amgSolver:  Solving for pd, Initial residual = 0.0702916, Final residual = 1.23759e-05, No Iterations 20
Updating old interface data for additonal non orthogonal/PISO correctors.
time step continuity errors : sum local = 1.16969e-07, global = 7.7748e-13, cumulative = -8.50487e-13
amgSolver:  Solving for pd, Initial residual = 0.0480918, Final residual = 8.71853e-06, No Iterations 20
time step continuity errors : sum local = 8.01733e-08, global = -6.09897e-13, cumulative = -1.46038e-12
Writing data at time 2.498561504828472
ExecutionTime = 39.57 s  ClockTime = 39 s

Volume: new = 4 old = 4 change = 0 ratio = 0
Courant Number mean: 0.0128122 max: 0.2 velocity magnitude: 7.9124
Interface Courant Number mean: 0 max: 0
deltaT = 0.00257113
Time = 2.501132637991434

PIMPLE: iteration 1
Mesh Courant Number mean: 0 max: 0
amgSolver:  Solving for Voltage, Initial residual = 0, Final residual = 0, No Iterations 1
BiCGStab:  Solving for Ux, Initial residual = 0.940237, Final residual = 2.85787e-10, No Iterations 3
BiCGStab:  Solving for Uy, Initial residual = 0.00618308, Final residual = 2.75558e-11, No Iterations 3
amgSolver:  Solving for pd, Initial residual = 0.0716681, Final residual = 1.27701e-05, No Iterations 20
Updating old interface data for additonal non orthogonal/PISO correctors.
time step continuity errors : sum local = 1.1813e-07, global = -8.64466e-13, cumulative = -2.32485e-12
amgSolver:  Solving for pd, Initial residual = 0.0465692, Final residual = 8.55496e-06, No Iterations 20
time step continuity errors : sum local = 8.12971e-08, global = 6.84542e-13, cumulative = -1.64031e-12
PIMPLE: iteration 2
Mesh Courant Number mean: 0 max: 0
amgSolver:  Solving for Voltage, Initial residual = 0, Final residual = 0, No Iterations 1
BiCGStab:  Solving for Ux, Initial residual = 0.94083, Final residual = 6.22526e-11, No Iterations 3
BiCGStab:  Solving for Uy, Initial residual = 0.143094, Final residual = 1.59972e-10, No Iterations 3
amgSolver:  Solving for pd, Initial residual = 0.0702917, Final residual = 1.23759e-05, No Iterations 20
Updating old interface data for additonal non orthogonal/PISO correctors.
time step continuity errors : sum local = 1.16969e-07, global = 7.77092e-13, cumulative = -8.63216e-13
amgSolver:  Solving for pd, Initial residual = 0.0480919, Final residual = 8.71854e-06, No Iterations 20
time step continuity errors : sum local = 8.01733e-08, global = -6.09585e-13, cumulative = -1.4728e-12
Writing data at time 2.501132637991434
ExecutionTime = 39.61 s  ClockTime = 39 s

End

